@<TRIPOS>MOLECULE
/home/jramos/PycharmProjects/GeCos/examples/04-IsoP_localhost_openbabel_pm3/04-IsoP_g16_conformers/04-IsoP_002_gaussian.xyz
 28 27 0 0 0
SMALL
GASTEIGER

@<TRIPOS>ATOM
      1 C           2.9977    0.3261   -8.5001 C.3     1  UNL11      -0.0286
      2 H           3.3215   -0.7042   -8.7515 H       1  UNL11       0.0313
      3 H           2.2362    0.5935   -9.2598 H       1  UNL11       0.0313
      4 C           4.1692    1.2558   -8.5801 C.2     1  UNL11      -0.0765
      5 C           5.4715    0.6964   -8.1351 C.3     1  UNL11      -0.0438
      6 H           6.2739    1.4518   -8.1609 H       1  UNL11       0.0274
      7 H           5.4013    0.3150   -7.1071 H       1  UNL11       0.0274
      8 H           5.7766   -0.1380   -8.7806 H       1  UNL11       0.0274
      9 C           4.0181    2.5088   -9.0310 C.2     1  UNL11      -0.0881
     10 H           3.0262    2.8570   -9.3473 H       1  UNL11       0.0569
     11 C           5.1090    3.5002   -9.1447 C.3     1  UNL11      -0.0466
     12 H           6.0730    3.1074   -8.7809 H       1  UNL11       0.0272
     13 H           5.2458    3.8046  -10.1908 H       1  UNL11       0.0272
     14 H           4.8745    4.4015   -8.5633 H       1  UNL11       0.0272
     15 C          -1.0543   -1.3041   -6.4365 C.3     1  UNL11      -0.0440
     16 H          -0.7383   -2.2882   -6.8071 H       1  UNL11       0.0274
     17 H          -1.3929   -1.4331   -5.3995 H       1  UNL11       0.0274
     18 H          -1.9227   -0.9891   -7.0312 H       1  UNL11       0.0274
     19 C           0.0289   -0.2866   -6.5112 C.2     1  UNL11      -0.0796
     20 C          -0.3289    1.0577   -5.9887 C.3     1  UNL11      -0.0440
     21 H           0.4679    1.7970   -6.1732 H       1  UNL11       0.0274
     22 H          -1.2476    1.4299   -6.4611 H       1  UNL11       0.0274
     23 H          -0.5032    1.0176   -4.9052 H       1  UNL11       0.0274
     24 C           1.2321   -0.5912   -7.0156 C.2     1  UNL11      -0.0850
     25 H           1.4288   -1.6054   -7.3883 H       1  UNL11       0.0572
     26 C           2.3716    0.3583   -7.1108 C.3     1  UNL11      -0.0308
     27 H           2.0473    1.3941   -6.8617 H       1  UNL11       0.0310
     28 H           3.1245    0.0859   -6.3430 H       1  UNL11       0.0310
@<TRIPOS>BOND
     1    18    15    1
     2     3     1    1
     3    10     9    1
     4    13    11    1
     5    16    15    1
     6    22    20    1
     7    15    19    1
     8    15    17    1
     9     2     1    1
    10     1     4    1
    11     1    26    1
    12     9    11    1
    13     9     4    2
    14    25    24    1
    15    19    24    2
    16    19    20    1
    17    24    26    1
    18    11    14    1
    19    11    12    1
    20     4     5    1
    21    20    21    1
    22    20    23    1
    23    26    27    1
    24    26    28    1
    25     8     5    1
    26     5     6    1
    27     5     7    1
