@<TRIPOS>MOLECULE
/home/jramos/PycharmProjects/GeCos/examples/04-IsoP_localhost_openbabel_pm3/04-IsoP_g16_conformers/04-IsoP_013_gaussian.xyz
 28 27 0 0 0
SMALL
GASTEIGER

@<TRIPOS>ATOM
      1 C           2.7129    0.5355   -9.4249 C.3     1  UNL11      -0.0286
      2 H           2.9694   -0.5126   -9.6803 H       1  UNL11       0.0313
      3 H           2.6623    1.0750  -10.3920 H       1  UNL11       0.0313
      4 C           3.7916    1.1289   -8.5713 C.2     1  UNL11      -0.0765
      5 C           4.5303    0.1763   -7.7039 C.3     1  UNL11      -0.0438
      6 H           5.2412    0.6915   -7.0377 H       1  UNL11       0.0274
      7 H           3.8289   -0.3948   -7.0787 H       1  UNL11       0.0274
      8 H           5.0991   -0.5407   -8.3109 H       1  UNL11       0.0274
      9 C           4.0453    2.4444   -8.6091 C.2     1  UNL11      -0.0881
     10 H           3.4599    3.0919   -9.2745 H       1  UNL11       0.0569
     11 C           5.0811    3.1251   -7.8031 C.3     1  UNL11      -0.0466
     12 H           5.6017    2.4337   -7.1198 H       1  UNL11       0.0272
     13 H           5.8370    3.5838   -8.4541 H       1  UNL11       0.0272
     14 H           4.6357    3.9235   -7.1953 H       1  UNL11       0.0272
     15 C           0.5274   -1.1777   -5.4120 C.3     1  UNL11      -0.0440
     16 H           0.9050   -2.1532   -5.7460 H       1  UNL11       0.0274
     17 H           1.0886   -0.8962   -4.5104 H       1  UNL11       0.0274
     18 H          -0.5231   -1.3106   -5.1197 H       1  UNL11       0.0274
     19 C           0.6518   -0.1252   -6.4562 C.2     1  UNL11      -0.0796
     20 C           0.1179    1.2091   -6.0786 C.3     1  UNL11      -0.0440
     21 H           0.3754    1.9802   -6.8234 H       1  UNL11       0.0274
     22 H          -0.9766    1.1778   -5.9939 H       1  UNL11       0.0274
     23 H           0.5189    1.5325   -5.1090 H       1  UNL11       0.0274
     24 C           1.2086   -0.3910   -7.6459 C.2     1  UNL11      -0.0850
     25 H           1.5899   -1.3991   -7.8586 H       1  UNL11       0.0572
     26 C           1.3477    0.5962   -8.7487 C.3     1  UNL11      -0.0308
     27 H           0.5558    0.3840   -9.4951 H       1  UNL11       0.0310
     28 H           1.1499    1.6284   -8.3793 H       1  UNL11       0.0310
@<TRIPOS>BOND
     1     3     1    1
     2    13    11    1
     3    10     9    1
     4     2     1    1
     5     9    11    1
     6     9     4    2
     7     1     4    1
     8     1    26    1
     9    11    12    1
    10    11    14    1
    11     4     5    1
    12     8     5    1
    13    27    26    1
    14     5     6    1
    15     5     7    1
    16    26    28    1
    17    26    24    1
    18    25    24    1
    19    24    19    2
    20    21    20    1
    21    19    20    1
    22    19    15    1
    23    20    22    1
    24    20    23    1
    25    16    15    1
    26    15    17    1
    27    15    18    1
