@<TRIPOS>MOLECULE
/home/jramos/PycharmProjects/GeCos/examples/04-IsoP_localhost_openbabel_pm3/04-IsoP_g16_conformers/04-IsoP_000_gaussian.xyz
 28 27 0 0 0
SMALL
GASTEIGER

@<TRIPOS>ATOM
      1 C           2.2151    1.4139   -9.1467 C.3     1  UNL1       -0.0286
      2 H           1.8911    0.4391   -9.5645 H       1  UNL1        0.0313
      3 H           2.0952    2.1460   -9.9700 H       1  UNL1        0.0313
      4 C           3.6523    1.3538   -8.7293 C.2     1  UNL1       -0.0765
      5 C           4.3966    2.6383   -8.7848 C.3     1  UNL1       -0.0438
      6 H           5.4264    2.5337   -8.4055 H       1  UNL1        0.0274
      7 H           4.4563    3.0082   -9.8171 H       1  UNL1        0.0274
      8 H           3.8927    3.4073   -8.1833 H       1  UNL1        0.0274
      9 C           4.2023    0.1970   -8.3361 C.2     1  UNL1       -0.0881
     10 H           3.5945   -0.7171   -8.3217 H       1  UNL1        0.0569
     11 C           5.6070    0.0362   -7.9035 C.3     1  UNL1       -0.0466
     12 H           6.1590    0.9908   -7.9065 H       1  UNL1        0.0272
     13 H           5.6537   -0.3736   -6.8860 H       1  UNL1        0.0272
     14 H           6.1379   -0.6588   -8.5674 H       1  UNL1        0.0272
     15 C          -2.3580    2.8406   -8.5353 C.3     1  UNL1       -0.0440
     16 H          -2.6211    1.9151   -9.0644 H       1  UNL1        0.0274
     17 H          -3.0276    2.9294   -7.6690 H       1  UNL1        0.0274
     18 H          -2.5754    3.6808   -9.2089 H       1  UNL1        0.0274
     19 C          -0.9346    2.8706   -8.1024 C.2     1  UNL1       -0.0796
     20 C          -0.5275    4.0867   -7.3518 C.3     1  UNL1       -0.0440
     21 H           0.5574    4.1067   -7.1562 H       1  UNL1        0.0274
     22 H          -0.7841    4.9963   -7.9107 H       1  UNL1        0.0274
     23 H          -1.0425    4.1336   -6.3830 H       1  UNL1        0.0274
     24 C          -0.1043    1.8568   -8.3811 C.2     1  UNL1       -0.0850
     25 H          -0.4708    0.9877   -8.9438 H       1  UNL1        0.0572
     26 C           1.3234    1.7986   -7.9719 C.3     1  UNL1       -0.0308
     27 H           1.6524    2.7724   -7.5419 H       1  UNL1        0.0310
     28 H           1.4289    1.0577   -7.1539 H       1  UNL1        0.0310
@<TRIPOS>BOND
     1     3     1    1
     2     7     5    1
     3     2     1    1
     4    18    15    1
     5     1     4    1
     6     1    26    1
     7    16    15    1
     8    25    24    1
     9     5     4    1
    10     5     6    1
    11     5     8    1
    12     4     9    2
    13    14    11    1
    14    15    19    1
    15    15    17    1
    16    24    19    2
    17    24    26    1
    18     9    10    1
    19     9    11    1
    20    19    20    1
    21    26    27    1
    22    26    28    1
    23    22    20    1
    24    12    11    1
    25    11    13    1
    26    20    21    1
    27    20    23    1
