@<TRIPOS>MOLECULE
/home/jramos/PycharmProjects/GeCos/examples/04-IsoP_localhost_openbabel_pm3/04-IsoP_g16_conformers/04-IsoP_028_gaussian.xyz
 28 27 0 0 0
SMALL
GASTEIGER

@<TRIPOS>ATOM
      1 C           2.2888    1.4601   -9.3128 C.3     1  UNL11      -0.0286
      2 H           2.3885    1.3371  -10.4102 H       1  UNL11       0.0313
      3 H           1.8918    2.4839   -9.1591 H       1  UNL11       0.0313
      4 C           3.6493    1.3149   -8.7037 C.2     1  UNL11      -0.0765
      5 C           4.3201    0.0101   -8.9422 C.3     1  UNL11      -0.0438
      6 H           5.2100   -0.1181   -8.3053 H       1  UNL11       0.0274
      7 H           3.6197   -0.8170   -8.7334 H       1  UNL11       0.0274
      8 H           4.6399   -0.0766   -9.9888 H       1  UNL11       0.0274
      9 C           4.2036    2.3109   -7.9997 C.2     1  UNL11      -0.0881
     10 H           3.6558    3.2512   -7.8565 H       1  UNL11       0.0569
     11 C           5.5419    2.2485   -7.3738 C.3     1  UNL11      -0.0466
     12 H           5.9905    1.2436   -7.4468 H       1  UNL11       0.0272
     13 H           6.2276    2.9566   -7.8577 H       1  UNL11       0.0272
     14 H           5.4856    2.5130   -6.3098 H       1  UNL11       0.0272
     15 C           0.1029    0.4195   -5.0976 C.3     1  UNL11      -0.0440
     16 H          -0.2684    1.4522   -5.1351 H       1  UNL11       0.0274
     17 H          -0.7373   -0.2252   -4.8062 H       1  UNL11       0.0274
     18 H           0.8539    0.3663   -4.2975 H       1  UNL11       0.0274
     19 C           0.6841   -0.0294   -6.3917 C.2     1  UNL11      -0.0796
     20 C           1.1536   -1.4392   -6.4193 C.3     1  UNL11      -0.0440
     21 H           1.7210   -1.6663   -7.3376 H       1  UNL11       0.0274
     22 H           1.8060   -1.6525   -5.5623 H       1  UNL11       0.0274
     23 H           0.3026   -2.1315   -6.3719 H       1  UNL11       0.0274
     24 C           0.7631    0.8003   -7.4408 C.2     1  UNL11      -0.0850
     25 H           0.4053    1.8346   -7.3484 H       1  UNL11       0.0572
     26 C           1.3070    0.4259   -8.7722 C.3     1  UNL11      -0.0308
     27 H           1.8101   -0.5732   -8.7293 H       1  UNL11       0.0310
     28 H           0.4551    0.3132   -9.4713 H       1  UNL11       0.0310
@<TRIPOS>BOND
     1    10     9    1
     2    13    11    1
     3     3     1    1
     4     2     1    1
     5     9    11    1
     6     9     4    2
     7    11    14    1
     8    11    12    1
     9     1     4    1
    10     1    26    1
    11     4     5    1
    12     8     5    1
    13    25    24    1
    14    28    26    1
    15     5     6    1
    16     5     7    1
    17    26    24    1
    18    26    27    1
    19    24    19    2
    20    16    15    1
    21    19    15    1
    22    19    20    1
    23    15    18    1
    24    15    17    1
    25    21    20    1
    26    20    22    1
    27    20    23    1
