@<TRIPOS>MOLECULE
/home/jramos/PycharmProjects/GeCos/examples/04-IsoP_localhost_openbabel_pm3/04-IsoP_g16_conformers/04-IsoP_015_gaussian.xyz
 28 27 0 0 0
SMALL
GASTEIGER

@<TRIPOS>ATOM
      1 C           2.1415    1.1942   -8.8853 C.3     1  UNL1       -0.0286
      2 H           1.8448    0.1270   -8.9494 H       1  UNL1        0.0313
      3 H           1.9736    1.6118   -9.8988 H       1  UNL1        0.0313
      4 C           3.6004    1.2476   -8.5479 C.2     1  UNL1       -0.0765
      5 C           4.5193    1.2691   -9.7155 C.3     1  UNL1       -0.0438
      6 H           5.5764    1.2156   -9.4068 H       1  UNL1        0.0274
      7 H           4.3212    0.4217  -10.3849 H       1  UNL1        0.0274
      8 H           4.3876    2.1919  -10.2965 H       1  UNL1        0.0274
      9 C           4.0267    1.2431   -7.2775 C.2     1  UNL1       -0.0881
     10 H           3.2765    1.2334   -6.4692 H       1  UNL1        0.0569
     11 C           5.4429    1.2576   -6.8573 C.3     1  UNL1       -0.0466
     12 H           6.1346    1.2380   -7.7158 H       1  UNL1        0.0272
     13 H           5.6626    2.1596   -6.2711 H       1  UNL1        0.0272
     14 H           5.6671    0.3872   -6.2268 H       1  UNL1        0.0272
     15 C          -2.5862    1.9218   -7.6292 C.3     1  UNL1       -0.0440
     16 H          -2.7294    1.2689   -8.5003 H       1  UNL1        0.0274
     17 H          -3.0613    1.4339   -6.7671 H       1  UNL1        0.0274
     18 H          -3.1309    2.8563   -7.8219 H       1  UNL1        0.0274
     19 C          -1.1528    2.1997   -7.3490 C.2     1  UNL1       -0.0796
     20 C          -0.8717    3.0768   -6.1833 C.3     1  UNL1       -0.0440
     21 H          -0.3176    3.9753   -6.4909 H       1  UNL1        0.0274
     22 H          -1.7909    3.4087   -5.6833 H       1  UNL1        0.0274
     23 H          -0.2572    2.5542   -5.4362 H       1  UNL1        0.0274
     24 C          -0.1818    1.6806   -8.1146 C.2     1  UNL1       -0.0850
     25 H          -0.4413    1.0384   -8.9664 H       1  UNL1        0.0572
     26 C           1.2634    1.9265   -7.8803 C.3     1  UNL1       -0.0308
     27 H           1.4668    3.0170   -7.9209 H       1  UNL1        0.0310
     28 H           1.5425    1.6157   -6.8451 H       1  UNL1        0.0310
@<TRIPOS>BOND
     1     7     5    1
     2     8     5    1
     3     3     1    1
     4     5     6    1
     5     5     4    1
     6    25    24    1
     7     2     1    1
     8     1     4    1
     9     1    26    1
    10     4     9    2
    11    16    15    1
    12    24    26    1
    13    24    19    2
    14    27    26    1
    15    26    28    1
    16    18    15    1
    17    12    11    1
    18    15    19    1
    19    15    17    1
    20    19    20    1
    21     9    11    1
    22     9    10    1
    23    11    13    1
    24    11    14    1
    25    21    20    1
    26    20    22    1
    27    20    23    1
