@<TRIPOS>MOLECULE
/home/jramos/PycharmProjects/GeCos/examples/04-IsoP_localhost_openbabel_pm3/04-IsoP_g16_conformers/04-IsoP_007_gaussian.xyz
 28 27 0 0 0
SMALL
GASTEIGER

@<TRIPOS>ATOM
      1 C           2.6599    0.5214   -9.1824 C.3     1  UNL11      -0.0286
      2 H           2.9537   -0.5349   -9.0209 H       1  UNL11       0.0313
      3 H           2.4581    0.6145  -10.2684 H       1  UNL11       0.0313
      4 C           3.7845    1.4417   -8.8172 C.2     1  UNL11      -0.0765
      5 C           3.7786    2.7684   -9.4864 C.3     1  UNL11      -0.0438
      6 H           4.6033    3.4101   -9.1353 H       1  UNL11       0.0274
      7 H           3.8830    2.6554  -10.5739 H       1  UNL11       0.0274
      8 H           2.8360    3.2995   -9.2949 H       1  UNL11       0.0274
      9 C           4.7269    1.0613   -7.9431 C.2     1  UNL11      -0.0881
     10 H           4.6757    0.0638   -7.4866 H       1  UNL11       0.0569
     11 C           5.8732    1.8955   -7.5229 C.3     1  UNL11      -0.0466
     12 H           5.8606    2.8939   -7.9905 H       1  UNL11       0.0272
     13 H           5.8693    2.0366   -6.4341 H       1  UNL11       0.0272
     14 H           6.8213    1.4121   -7.7930 H       1  UNL11       0.0272
     15 C           0.6602   -0.6082   -4.8868 C.3     1  UNL11      -0.0440
     16 H           1.6349   -0.3105   -4.4780 H       1  UNL11       0.0274
     17 H          -0.1167   -0.1417   -4.2658 H       1  UNL11       0.0274
     18 H           0.5693   -1.6965   -4.7683 H       1  UNL11       0.0274
     19 C           0.4934   -0.2199   -6.3133 C.2     1  UNL11      -0.0796
     20 C          -0.8246   -0.5542   -6.9127 C.3     1  UNL11      -0.0440
     21 H          -0.8250   -0.4135   -8.0063 H       1  UNL11       0.0274
     22 H          -1.0972   -1.5981   -6.7087 H       1  UNL11       0.0274
     23 H          -1.6131    0.0849   -6.4934 H       1  UNL11       0.0274
     24 C           1.4782    0.3907   -6.9854 C.2     1  UNL11      -0.0850
     25 H           2.4365    0.6073   -6.4915 H       1  UNL11       0.0572
     26 C           1.3843    0.8250   -8.4035 C.3     1  UNL11      -0.0308
     27 H           0.5162    0.3339   -8.8994 H       1  UNL11       0.0310
     28 H           1.1676    1.9128   -8.4262 H       1  UNL11       0.0310
@<TRIPOS>BOND
     1     3     1    1
     2     7     5    1
     3     2     1    1
     4     1     4    1
     5     1    26    1
     6     5     4    1
     7     5     6    1
     8     5     8    1
     9     4     9    2
    10    27    26    1
    11    14    11    1
    12     9    10    1
    13     9    11    1
    14    26    28    1
    15    26    24    1
    16    21    20    1
    17    12    11    1
    18    11    13    1
    19    24    25    1
    20    24    19    2
    21    22    20    1
    22    20    19    1
    23    20    23    1
    24    19    15    1
    25    18    15    1
    26    15    16    1
    27    15    17    1
