@<TRIPOS>MOLECULE
/home/jramos/PycharmProjects/GeCos/examples/04-IsoP_localhost_openbabel_pm3/04-IsoP_g16_conformers/04-IsoP_024_gaussian.xyz
 28 27 0 0 0
SMALL
GASTEIGER

@<TRIPOS>ATOM
      1 C           2.7258    2.3773   -7.4333 C.3     1  UNL11      -0.0286
      2 H           2.5499    3.3910   -7.8475 H       1  UNL11       0.0313
      3 H           2.8755    2.5221   -6.3438 H       1  UNL11       0.0313
      4 C           3.9848    1.8496   -8.0522 C.2     1  UNL11      -0.0765
      5 C           5.2323    2.1514   -7.3029 C.3     1  UNL11      -0.0438
      6 H           6.1304    1.8263   -7.8535 H       1  UNL11       0.0274
      7 H           5.3253    3.2290   -7.1137 H       1  UNL11       0.0274
      8 H           5.2328    1.6397   -6.3310 H       1  UNL11       0.0274
      9 C           3.9696    1.1841   -9.2149 C.2     1  UNL11      -0.0881
     10 H           2.9976    0.9894   -9.6982 H       1  UNL11       0.0569
     11 C           5.1640    0.6651   -9.9121 C.3     1  UNL11      -0.0466
     12 H           6.0994    0.9204   -9.3868 H       1  UNL11       0.0272
     13 H           5.1161   -0.4286   -9.9976 H       1  UNL11       0.0272
     14 H           5.2274    1.0767  -10.9279 H       1  UNL11       0.0272
     15 C           0.4131   -1.6965   -5.8201 C.3     1  UNL11      -0.0440
     16 H           1.3378   -1.7734   -5.2330 H       1  UNL11       0.0274
     17 H          -0.4263   -1.6507   -5.1128 H       1  UNL11       0.0274
     18 H           0.3087   -2.6253   -6.3975 H       1  UNL11       0.0274
     19 C           0.4029   -0.5151   -6.7228 C.2     1  UNL11      -0.0796
     20 C          -0.8266   -0.3229   -7.5346 C.3     1  UNL11      -0.0440
     21 H          -0.5872   -0.2523   -8.6052 H       1  UNL11       0.0274
     22 H          -1.5394   -1.1481   -7.4077 H       1  UNL11       0.0274
     23 H          -1.3416    0.6068   -7.2527 H       1  UNL11       0.0274
     24 C           1.4512    0.3185   -6.7874 C.2     1  UNL11      -0.0850
     25 H           2.3403    0.1318   -6.1709 H       1  UNL11       0.0572
     26 C           1.4975    1.5101   -7.6735 C.3     1  UNL11      -0.0308
     27 H           1.4763    1.1760   -8.7380 H       1  UNL11       0.0310
     28 H           0.5794    2.1156   -7.5276 H       1  UNL11       0.0310
@<TRIPOS>BOND
     1     7     5    1
     2     3     1    1
     3     8     5    1
     4     5     6    1
     5     5     4    1
     6     2     1    1
     7     1     4    1
     8     1    26    1
     9     4     9    2
    10    28    26    1
    11    25    24    1
    12    26    24    1
    13    26    27    1
    14    24    19    2
    15    12    11    1
    16    16    15    1
    17     9    11    1
    18     9    10    1
    19    17    15    1
    20    19    15    1
    21    19    20    1
    22    23    20    1
    23    15    18    1
    24    11    14    1
    25    11    13    1
    26    20    21    1
    27    20    22    1
