@<TRIPOS>MOLECULE
/home/jramos/PycharmProjects/GeCos/examples/04-IsoP_localhost_openbabel_pm3/04-IsoP_g16_conformers/04-IsoP_024_gaussian.xyz
 28 27 0 0 0
SMALL
GASTEIGER

@<TRIPOS>ATOM
      1 C           2.2956    1.4625   -9.0806 C.3     1  UNL1       -0.0286
      2 H           1.9359    0.4803   -9.4494 H       1  UNL1        0.0313
      3 H           2.2869    2.1340   -9.9634 H       1  UNL1        0.0313
      4 C           3.7029    1.2757   -8.5997 C.2     1  UNL1       -0.0765
      5 C           4.7561    1.5023   -9.6234 C.3     1  UNL1       -0.0438
      6 H           5.7601    1.2552   -9.2408 H       1  UNL1        0.0274
      7 H           4.5752    0.8877  -10.5151 H       1  UNL1        0.0274
      8 H           4.7685    2.5544   -9.9389 H       1  UNL1        0.0274
      9 C           3.9704    0.8993   -7.3420 C.2     1  UNL1       -0.0881
     10 H           3.1293    0.7671   -6.6410 H       1  UNL1        0.0569
     11 C           5.3219    0.6556   -6.7977 C.3     1  UNL1       -0.0466
     12 H           6.1089    0.7792   -7.5601 H       1  UNL1        0.0272
     13 H           5.5388    1.3521   -5.9770 H       1  UNL1        0.0272
     14 H           5.3993   -0.3644   -6.3989 H       1  UNL1        0.0272
     15 C           0.8283    5.6254   -6.8302 C.3     1  UNL1       -0.0440
     16 H           1.6753    6.0234   -7.4045 H       1  UNL1        0.0274
     17 H          -0.0713    6.1729   -7.1429 H       1  UNL1        0.0274
     18 H           1.0064    5.8591   -5.7716 H       1  UNL1        0.0274
     19 C           0.6436    4.1623   -7.0193 C.2     1  UNL1       -0.0796
     20 C          -0.5000    3.5486   -6.2960 C.3     1  UNL1       -0.0440
     21 H          -0.1673    2.7096   -5.6684 H       1  UNL1        0.0274
     22 H          -1.0114    4.2685   -5.6438 H       1  UNL1        0.0274
     23 H          -1.2445    3.1535   -7.0022 H       1  UNL1        0.0274
     24 C           1.4704    3.4533   -7.8014 C.2     1  UNL1       -0.0850
     25 H           2.3052    3.9512   -8.3119 H       1  UNL1        0.0572
     26 C           1.3361    1.9904   -8.0226 C.3     1  UNL1       -0.0308
     27 H           1.5102    1.4566   -7.0582 H       1  UNL1        0.0310
     28 H           0.2922    1.7547   -8.3153 H       1  UNL1        0.0310
@<TRIPOS>BOND
     1     7     5    1
     2     3     1    1
     3     8     5    1
     4     5     6    1
     5     5     4    1
     6     2     1    1
     7     1     4    1
     8     1    26    1
     9     4     9    2
    10    28    26    1
    11    25    24    1
    12    26    24    1
    13    26    27    1
    14    24    19    2
    15    12    11    1
    16    16    15    1
    17     9    11    1
    18     9    10    1
    19    17    15    1
    20    19    15    1
    21    19    20    1
    22    23    20    1
    23    15    18    1
    24    11    14    1
    25    11    13    1
    26    20    21    1
    27    20    22    1
