@<TRIPOS>MOLECULE
/home/jramos/PycharmProjects/GeCos/examples/04-IsoP_localhost_openbabel_pm3/04-IsoP_g16_conformers/04-IsoP_041_gaussian.xyz
 28 27 0 0 0
SMALL
GASTEIGER

@<TRIPOS>ATOM
      1 C           2.7049    2.5312   -7.4130 C.3     1  UNL11      -0.0286
      2 H           2.6526    3.5024   -7.9451 H       1  UNL11       0.0313
      3 H           2.9563    2.7792   -6.3620 H       1  UNL11       0.0313
      4 C           3.7892    1.6866   -8.0091 C.2     1  UNL11      -0.0765
      5 C           4.5274    0.8145   -7.0605 C.3     1  UNL11      -0.0438
      6 H           5.2427    0.1548   -7.5782 H       1  UNL11       0.0274
      7 H           5.0913    1.4176   -6.3365 H       1  UNL11       0.0274
      8 H           3.8262    0.1821   -6.4971 H       1  UNL11       0.0274
      9 C           4.0481    1.7359   -9.3231 C.2     1  UNL11      -0.0881
     10 H           3.4625    2.4043   -9.9675 H       1  UNL11       0.0569
     11 C           5.0896    0.9395  -10.0061 C.3     1  UNL11      -0.0466
     12 H           5.6097    0.2522   -9.3184 H       1  UNL11       0.0272
     13 H           4.6498    0.3369  -10.8116 H       1  UNL11       0.0272
     14 H           5.8451    1.5972  -10.4562 H       1  UNL11       0.0272
     15 C           0.5289   -1.5042   -5.7413 C.3     1  UNL11      -0.0440
     16 H           0.9023   -1.1771   -4.7619 H       1  UNL11       0.0274
     17 H          -0.5211   -1.8009   -5.6143 H       1  UNL11       0.0274
     18 H           1.0939   -2.4016   -6.0285 H       1  UNL11       0.0274
     19 C           0.6534   -0.4509   -6.7848 C.2     1  UNL11      -0.0796
     20 C           0.1265   -0.8200   -8.1243 C.3     1  UNL11      -0.0440
     21 H           0.3831   -0.0673   -8.8880 H       1  UNL11       0.0274
     22 H           0.5339   -1.7847   -8.4544 H       1  UNL11       0.0274
     23 H          -0.9676   -0.9106   -8.0979 H       1  UNL11       0.0274
     24 C           1.2041    0.7387   -6.5070 C.2     1  UNL11      -0.0850
     25 H           1.5805    0.9448   -5.4957 H       1  UNL11       0.0572
     26 C           1.3425    1.8503   -7.4845 C.3     1  UNL11      -0.0308
     27 H           1.1501    1.4888   -8.5204 H       1  UNL11       0.0310
     28 H           0.5469    2.5919   -7.2689 H       1  UNL11       0.0310
@<TRIPOS>BOND
     1     7     5    1
     2     3     1    1
     3     5     6    1
     4     5     4    1
     5     5     8    1
     6     2     1    1
     7    14    11    1
     8     1     4    1
     9     1    26    1
    10     4     9    2
    11    12    11    1
    12     9    11    1
    13     9    10    1
    14    11    13    1
    15    25    24    1
    16    28    26    1
    17    26    24    1
    18    26    27    1
    19    24    19    2
    20    16    15    1
    21    19    15    1
    22    19    20    1
    23    15    18    1
    24    15    17    1
    25    21    20    1
    26    20    22    1
    27    20    23    1
