@<TRIPOS>MOLECULE
/home/jramos/PycharmProjects/GeCos/examples/04-IsoP_localhost_openbabel_pm3/04-IsoP_g16_conformers/04-IsoP_002_gaussian.xyz
 28 27 0 0 0
SMALL
GASTEIGER

@<TRIPOS>ATOM
      1 C           2.2988    1.1274   -9.0933 C.3     1  UNL1       -0.0286
      2 H           1.9606    0.0739   -9.1670 H       1  UNL1        0.0313
      3 H           2.2429    1.5316  -10.1238 H       1  UNL1        0.0313
      4 C           3.7080    1.1696   -8.5878 C.2     1  UNL1       -0.0765
      5 C           4.0634    0.1434   -7.5741 C.3     1  UNL1       -0.0438
      6 H           5.0927    0.2727   -7.2013 H       1  UNL1        0.0274
      7 H           3.3842    0.1950   -6.7120 H       1  UNL1        0.0274
      8 H           3.9862   -0.8660   -7.9999 H       1  UNL1        0.0274
      9 C           4.5704    2.0888   -9.0431 C.2     1  UNL1       -0.0881
     10 H           4.2419    2.8169   -9.7961 H       1  UNL1        0.0569
     11 C           5.9771    2.2137   -8.6054 C.3     1  UNL1       -0.0466
     12 H           6.2406    1.4808   -7.8248 H       1  UNL1        0.0272
     13 H           6.6594    2.0598   -9.4519 H       1  UNL1        0.0272
     14 H           6.1687    3.2162   -8.2010 H       1  UNL1        0.0272
     15 C          -2.2503    2.7435   -9.2623 C.3     1  UNL1       -0.0440
     16 H          -2.5193    1.6945   -9.4436 H       1  UNL1        0.0274
     17 H          -2.9542    3.1430   -8.5196 H       1  UNL1        0.0274
     18 H          -2.4108    3.2937  -10.1996 H       1  UNL1        0.0274
     19 C          -0.8471    2.9046   -8.7939 C.2     1  UNL1       -0.0796
     20 C          -0.4359    4.3012   -8.4963 C.3     1  UNL1       -0.0440
     21 H           0.6396    4.3738   -8.2652 H       1  UNL1        0.0274
     22 H          -0.6407    4.9603   -9.3503 H       1  UNL1        0.0274
     23 H          -0.9904    4.6918   -7.6326 H       1  UNL1        0.0274
     24 C          -0.0367    1.8466   -8.6567 C.2     1  UNL1       -0.0850
     25 H          -0.4044    0.8402   -8.8978 H       1  UNL1        0.0572
     26 C           1.3692    1.9175   -8.1797 C.3     1  UNL1       -0.0308
     27 H           1.7115    2.9748   -8.1082 H       1  UNL1        0.0310
     28 H           1.4131    1.5165   -7.1463 H       1  UNL1        0.0310
@<TRIPOS>BOND
     1    18    15    1
     2     3     1    1
     3    10     9    1
     4    13    11    1
     5    16    15    1
     6    22    20    1
     7    15    19    1
     8    15    17    1
     9     2     1    1
    10     1     4    1
    11     1    26    1
    12     9    11    1
    13     9     4    2
    14    25    24    1
    15    19    24    2
    16    19    20    1
    17    24    26    1
    18    11    14    1
    19    11    12    1
    20     4     5    1
    21    20    21    1
    22    20    23    1
    23    26    27    1
    24    26    28    1
    25     8     5    1
    26     5     6    1
    27     5     7    1
