@<TRIPOS>MOLECULE
/home/jramos/PycharmProjects/GeCos/examples/04-IsoP_localhost_openbabel_pm3/04-IsoP_g16_conformers/04-IsoP_007_gaussian.xyz
 28 27 0 0 0
SMALL
GASTEIGER

@<TRIPOS>ATOM
      1 C           2.4887    0.8892   -9.1296 C.3     1  UNL1       -0.0286
      2 H           2.4357   -0.1855   -9.3949 H       1  UNL1        0.0313
      3 H           2.2698    1.4409  -10.0659 H       1  UNL1        0.0313
      4 C           3.8671    1.2489   -8.6655 C.2     1  UNL1       -0.0765
      5 C           4.2520    2.6753   -8.8244 C.3     1  UNL1       -0.0438
      6 H           5.2567    2.8781   -8.4185 H       1  UNL1        0.0274
      7 H           4.2564    2.9607   -9.8850 H       1  UNL1        0.0274
      8 H           3.5417    3.3330   -8.3046 H       1  UNL1        0.0274
      9 C           4.6826    0.3186   -8.1495 C.2     1  UNL1       -0.0881
     10 H           4.3381   -0.7207   -8.0637 H       1  UNL1        0.0569
     11 C           6.0569    0.5753   -7.6679 C.3     1  UNL1       -0.0466
     12 H           6.3408    1.6373   -7.7529 H       1  UNL1        0.0272
     13 H           6.1567    0.2863   -6.6134 H       1  UNL1        0.0272
     14 H           6.7836   -0.0118   -8.2447 H       1  UNL1        0.0272
     15 C           0.4646   -1.1862   -5.2152 C.3     1  UNL1       -0.0440
     16 H           1.5036   -1.3504   -4.9002 H       1  UNL1        0.0274
     17 H          -0.0869   -0.7952   -4.3493 H       1  UNL1        0.0274
     18 H           0.0353   -2.1658   -5.4660 H       1  UNL1        0.0274
     19 C           0.3554   -0.2543   -6.3698 C.2     1  UNL1       -0.0796
     20 C          -1.0302    0.0457   -6.8152 C.3     1  UNL1       -0.0440
     21 H          -1.0437    0.5863   -7.7761 H       1  UNL1        0.0274
     22 H          -1.6124   -0.8767   -6.9410 H       1  UNL1        0.0274
     23 H          -1.5479    0.6690   -6.0740 H       1  UNL1        0.0274
     24 C           1.4468    0.2661   -6.9464 C.2     1  UNL1       -0.0850
     25 H           2.4488    0.0026   -6.5780 H       1  UNL1        0.0572
     26 C           1.4218    1.2152   -8.0897 C.3     1  UNL1       -0.0308
     27 H           0.4167    1.2124   -8.5699 H       1  UNL1        0.0310
     28 H           1.5652    2.2434   -7.6985 H       1  UNL1        0.0310
@<TRIPOS>BOND
     1     3     1    1
     2     7     5    1
     3     2     1    1
     4     1     4    1
     5     1    26    1
     6     5     4    1
     7     5     6    1
     8     5     8    1
     9     4     9    2
    10    27    26    1
    11    14    11    1
    12     9    10    1
    13     9    11    1
    14    26    28    1
    15    26    24    1
    16    21    20    1
    17    12    11    1
    18    11    13    1
    19    24    25    1
    20    24    19    2
    21    22    20    1
    22    20    19    1
    23    20    23    1
    24    19    15    1
    25    18    15    1
    26    15    16    1
    27    15    17    1
