@<TRIPOS>MOLECULE
/home/jramos/PycharmProjects/GeCos/examples/04-IsoP_localhost_openbabel_pm3/04-IsoP_g16_conformers/04-IsoP_015_gaussian.xyz
 28 27 0 0 0
SMALL
GASTEIGER

@<TRIPOS>ATOM
      1 C           3.4621    0.1025   -7.9038 C.3     1  UNL11      -0.0286
      2 H           3.9610   -0.1612   -6.9485 H       1  UNL11       0.0313
      3 H           3.4575   -0.8293   -8.5050 H       1  UNL11       0.0313
      4 C           4.2945    1.1448   -8.5862 C.2     1  UNL11      -0.0765
      5 C           5.3363    0.6195   -9.5065 C.3     1  UNL11      -0.0438
      6 H           5.9742    1.4248   -9.9066 H       1  UNL11       0.0274
      7 H           5.9864   -0.0999   -8.9915 H       1  UNL11       0.0274
      8 H           4.8762    0.1031  -10.3598 H       1  UNL11       0.0274
      9 C           4.1177    2.4512   -8.3459 C.2     1  UNL11      -0.0881
     10 H           3.3157    2.7564   -7.6531 H       1  UNL11       0.0569
     11 C           4.9152    3.5403   -8.9460 C.3     1  UNL11      -0.0466
     12 H           5.7146    3.1604   -9.6037 H       1  UNL11       0.0272
     13 H           4.2758    4.2025   -9.5445 H       1  UNL11       0.0272
     14 H           5.3866    4.1494   -8.1636 H       1  UNL11       0.0272
     15 C          -0.6746   -1.2169   -5.5361 C.3     1  UNL11      -0.0440
     16 H          -0.0360   -2.0705   -5.2730 H       1  UNL11       0.0274
     17 H          -1.0063   -0.7492   -4.5990 H       1  UNL11       0.0274
     18 H          -1.5660   -1.6129   -6.0417 H       1  UNL11       0.0274
     19 C           0.0193   -0.2249   -6.3992 C.2     1  UNL11      -0.0796
     20 C          -0.7766    0.9636   -6.8008 C.3     1  UNL11      -0.0440
     21 H          -0.8564    1.0328   -7.8952 H       1  UNL11       0.0274
     22 H          -1.7961    0.9360   -6.3947 H       1  UNL11       0.0274
     23 H          -0.3038    1.8917   -6.4487 H       1  UNL11       0.0274
     24 C           1.2908   -0.4078   -6.7841 C.2     1  UNL11      -0.0850
     25 H           1.8365   -1.3041   -6.4613 H       1  UNL11       0.0572
     26 C           2.0300    0.5493   -7.6452 C.3     1  UNL11      -0.0308
     27 H           1.4915    0.6767   -8.6076 H       1  UNL11       0.0310
     28 H           2.0343    1.5625   -7.1767 H       1  UNL11       0.0310
@<TRIPOS>BOND
     1     7     5    1
     2     8     5    1
     3     3     1    1
     4     5     6    1
     5     5     4    1
     6    25    24    1
     7     2     1    1
     8     1     4    1
     9     1    26    1
    10     4     9    2
    11    16    15    1
    12    24    26    1
    13    24    19    2
    14    27    26    1
    15    26    28    1
    16    18    15    1
    17    12    11    1
    18    15    19    1
    19    15    17    1
    20    19    20    1
    21     9    11    1
    22     9    10    1
    23    11    13    1
    24    11    14    1
    25    21    20    1
    26    20    22    1
    27    20    23    1
