@<TRIPOS>MOLECULE
/home/jramos/PycharmProjects/GeCos/examples/04-IsoP_localhost_openbabel_pm3/04-IsoP_g16_conformers/04-IsoP_000_gaussian.xyz
 28 27 0 0 0
SMALL
GASTEIGER

@<TRIPOS>ATOM
      1 C           3.4281    0.6157   -7.3844 C.3     1  UNL11      -0.0286
      2 H           3.8780    0.9097   -6.4144 H       1  UNL11       0.0313
      3 H           3.5499   -0.4839   -7.4487 H       1  UNL11       0.0313
      4 C           4.1533    1.2716   -8.5190 C.2     1  UNL11      -0.0765
      5 C           4.1459    0.5305   -9.8065 C.3     1  UNL11      -0.0438
      6 H           4.6418    1.0984  -10.6108 H       1  UNL11       0.0274
      7 H           4.6680   -0.4303   -9.7045 H       1  UNL11       0.0274
      8 H           3.1171    0.3188  -10.1287 H       1  UNL11       0.0274
      9 C           4.7612    2.4536   -8.3497 C.2     1  UNL11      -0.0881
     10 H           4.7298    2.9459   -7.3690 H       1  UNL11       0.0569
     11 C           5.4975    3.1810   -9.4056 C.3     1  UNL11      -0.0466
     12 H           5.4677    2.6568  -10.3753 H       1  UNL11       0.0272
     13 H           5.0721    4.1823   -9.5539 H       1  UNL11       0.0272
     14 H           6.5518    3.3050   -9.1251 H       1  UNL11       0.0272
     15 C          -0.5935   -0.9474   -5.2150 C.3     1  UNL11      -0.0440
     16 H          -0.0550   -0.7512   -4.2785 H       1  UNL11       0.0274
     17 H          -1.6115   -0.5503   -5.1020 H       1  UNL11       0.0274
     18 H          -0.6743   -2.0371   -5.3289 H       1  UNL11       0.0274
     19 C           0.0752   -0.3447   -6.3999 C.2     1  UNL11      -0.0796
     20 C          -0.6257   -0.5500   -7.6940 C.3     1  UNL11      -0.0440
     21 H          -0.0318   -0.1829   -8.5474 H       1  UNL11       0.0274
     22 H          -0.8324   -1.6150   -7.8630 H       1  UNL11       0.0274
     23 H          -1.5863   -0.0180   -7.7020 H       1  UNL11       0.0274
     24 C           1.2247    0.3323   -6.2767 C.2     1  UNL11      -0.0850
     25 H           1.6915    0.4436   -5.2888 H       1  UNL11       0.0572
     26 C           1.9479    0.9790   -7.4028 C.3     1  UNL11      -0.0308
     27 H           1.4942    0.6954   -8.3801 H       1  UNL11       0.0310
     28 H           1.8234    2.0777   -7.3210 H       1  UNL11       0.0310
@<TRIPOS>BOND
     1     3     1    1
     2     7     5    1
     3     2     1    1
     4    18    15    1
     5     1     4    1
     6     1    26    1
     7    16    15    1
     8    25    24    1
     9     5     4    1
    10     5     6    1
    11     5     8    1
    12     4     9    2
    13    14    11    1
    14    15    19    1
    15    15    17    1
    16    24    19    2
    17    24    26    1
    18     9    10    1
    19     9    11    1
    20    19    20    1
    21    26    27    1
    22    26    28    1
    23    22    20    1
    24    12    11    1
    25    11    13    1
    26    20    21    1
    27    20    23    1
