@<TRIPOS>MOLECULE
/home/jramos/PycharmProjects/GeCos/examples/04-IsoP_localhost_openbabel_pm3/04-IsoP_g16_conformers/04-IsoP_013_gaussian.xyz
 28 27 0 0 0
SMALL
GASTEIGER

@<TRIPOS>ATOM
      1 C           2.1771    1.0888   -8.9055 C.3     1  UNL1       -0.0286
      2 H           1.9546    0.0127   -9.0538 H       1  UNL1        0.0313
      3 H           1.9496    1.5773   -9.8743 H       1  UNL1        0.0313
      4 C           3.6282    1.2672   -8.5784 C.2     1  UNL1       -0.0765
      5 C           4.2762    0.1370   -7.8656 C.3     1  UNL1       -0.0438
      6 H           5.3127    0.3730   -7.5747 H       1  UNL1        0.0274
      7 H           3.7143   -0.1131   -6.9541 H       1  UNL1        0.0274
      8 H           4.3020   -0.7589   -8.5003 H       1  UNL1        0.0274
      9 C           4.2709    2.3929   -8.9188 C.2     1  UNL1       -0.0881
     10 H           3.7298    3.1896   -9.4454 H       1  UNL1        0.0569
     11 C           5.6960    2.6667   -8.6359 C.3     1  UNL1       -0.0466
     12 H           6.1731    1.8539   -8.0634 H       1  UNL1        0.0272
     13 H           6.2580    2.7914   -9.5709 H       1  UNL1        0.0272
     14 H           5.8044    3.5924   -8.0557 H       1  UNL1        0.0272
     15 C           1.2237    0.4374   -4.1641 C.3     1  UNL1       -0.0440
     16 H           1.1006   -0.6187   -4.4382 H       1  UNL1        0.0274
     17 H           2.1414    0.5196   -3.5656 H       1  UNL1        0.0274
     18 H           0.3805    0.7128   -3.5162 H       1  UNL1        0.0274
     19 C           1.2892    1.3348   -5.3490 C.2     1  UNL1       -0.0796
     20 C           1.4128    2.7833   -5.0416 C.3     1  UNL1       -0.0440
     21 H           1.6122    3.3797   -5.9472 H       1  UNL1        0.0274
     22 H           0.4873    3.1627   -4.5881 H       1  UNL1        0.0274
     23 H           2.2313    2.9659   -4.3330 H       1  UNL1        0.0274
     24 C           1.2357    0.8435   -6.5947 C.2     1  UNL1       -0.0850
     25 H           1.1505   -0.2404   -6.7523 H       1  UNL1        0.0572
     26 C           1.2702    1.6729   -7.8280 C.3     1  UNL1       -0.0308
     27 H           0.2342    1.7455   -8.2164 H       1  UNL1        0.0310
     28 H           1.5810    2.7161   -7.5914 H       1  UNL1        0.0310
@<TRIPOS>BOND
     1     3     1    1
     2    13    11    1
     3    10     9    1
     4     2     1    1
     5     9    11    1
     6     9     4    2
     7     1     4    1
     8     1    26    1
     9    11    12    1
    10    11    14    1
    11     4     5    1
    12     8     5    1
    13    27    26    1
    14     5     6    1
    15     5     7    1
    16    26    28    1
    17    26    24    1
    18    25    24    1
    19    24    19    2
    20    21    20    1
    21    19    20    1
    22    19    15    1
    23    20    22    1
    24    20    23    1
    25    16    15    1
    26    15    17    1
    27    15    18    1
