@<TRIPOS>MOLECULE
/home/jramos/PycharmProjects/GeCos/examples/04-IsoP_localhost_openbabel_pm3/04-IsoP_g16_conformers/04-IsoP_005_gaussian.xyz
 28 27 0 0 0
SMALL
GASTEIGER

@<TRIPOS>ATOM
      1 C           3.4677    0.5181   -7.3744 C.3     1  UNL11      -0.0286
      2 H           3.4227    1.0779   -6.4189 H       1  UNL11       0.0313
      3 H           3.9944   -0.4294   -7.1407 H       1  UNL11       0.0313
      4 C           4.2449    1.2870   -8.3980 C.2     1  UNL11      -0.0765
      5 C           4.9261    0.4745   -9.4387 C.3     1  UNL11      -0.0438
      6 H           5.4256    1.1056  -10.1919 H       1  UNL11       0.0274
      7 H           5.6887   -0.1744   -8.9873 H       1  UNL11       0.0274
      8 H           4.2072   -0.1701   -9.9629 H       1  UNL11       0.0274
      9 C           4.3029    2.6249   -8.3494 C.2     1  UNL11      -0.0881
     10 H           3.7777    3.1633   -7.5497 H       1  UNL11       0.0569
     11 C           5.0391    3.4717   -9.3123 C.3     1  UNL11      -0.0466
     12 H           5.5184    2.8806  -10.1103 H       1  UNL11       0.0272
     13 H           4.3619    4.1916   -9.7904 H       1  UNL11       0.0272
     14 H           5.8255    4.0426   -8.8012 H       1  UNL11       0.0272
     15 C          -0.6463   -1.1387   -5.4622 C.3     1  UNL11      -0.0440
     16 H          -0.0471   -2.0067   -5.1570 H       1  UNL11       0.0274
     17 H          -0.8889   -0.5679   -4.5554 H       1  UNL11       0.0274
     18 H          -1.5905   -1.5167   -5.8777 H       1  UNL11       0.0274
     19 C           0.0536   -0.2766   -6.4527 C.2     1  UNL11      -0.0796
     20 C          -0.7211    0.8994   -6.9270 C.3     1  UNL11      -0.0440
     21 H          -0.1161    1.5595   -7.5702 H       1  UNL11       0.0274
     22 H          -1.5960    0.5774   -7.5075 H       1  UNL11       0.0274
     23 H          -1.0839    1.4969   -6.0802 H       1  UNL11       0.0274
     24 C           1.2927   -0.5674   -6.8709 C.2     1  UNL11      -0.0850
     25 H           1.8105   -1.4519   -6.4763 H       1  UNL11       0.0572
     26 C           2.0550    0.2288   -7.8681 C.3     1  UNL11      -0.0308
     27 H           2.0890   -0.3368   -8.8217 H       1  UNL11       0.0310
     28 H           1.5289    1.1823   -8.1011 H       1  UNL11       0.0310
@<TRIPOS>BOND
     1     2     1    1
     2     3     1    1
     3     7     5    1
     4     1     4    1
     5     1    26    1
     6    14    11    1
     7    16    15    1
     8    25    24    1
     9    10     9    1
    10    17    15    1
    11     4     9    2
    12     4     5    1
    13     9    11    1
    14    15    19    1
    15    15    18    1
    16    24    19    2
    17    24    26    1
    18     5     6    1
    19     5     8    1
    20    11    12    1
    21    11    13    1
    22    19    20    1
    23    26    28    1
    24    26    27    1
    25    23    20    1
    26    20    21    1
    27    20    22    1
