@<TRIPOS>MOLECULE
/home/jramos/PycharmProjects/GeCos/examples/04-IsoP_localhost_openbabel_pm3/04-IsoP_g16_conformers/04-IsoP_012_gaussian.xyz
 28 27 0 0 0
SMALL
GASTEIGER

@<TRIPOS>ATOM
      1 C           2.5117    1.3656   -9.2602 C.3     1  UNL1       -0.0286
      2 H           2.1365    0.3706   -9.5733 H       1  UNL1        0.0313
      3 H           2.5955    1.9640  -10.1890 H       1  UNL1        0.0313
      4 C           3.8507    1.1806   -8.6150 C.2     1  UNL1       -0.0765
      5 C           3.8667    0.2823   -7.4311 C.3     1  UNL1       -0.0438
      6 H           4.8108    0.3591   -6.8683 H       1  UNL1        0.0274
      7 H           3.0338    0.5391   -6.7547 H       1  UNL1        0.0274
      8 H           3.7413   -0.7647   -7.7364 H       1  UNL1        0.0274
      9 C           4.9420    1.7953   -9.0902 C.2     1  UNL1       -0.0881
     10 H           4.8635    2.4501   -9.9678 H       1  UNL1        0.0569
     11 C           6.2956    1.6598   -8.5103 C.3     1  UNL1       -0.0466
     12 H           6.2881    1.0982   -7.5611 H       1  UNL1        0.0272
     13 H           6.9618    1.1321   -9.2056 H       1  UNL1        0.0272
     14 H           6.7344    2.6463   -8.3121 H       1  UNL1        0.0272
     15 C           1.0736    5.8441   -8.0277 C.3     1  UNL1       -0.0440
     16 H           2.1463    6.0361   -7.8938 H       1  UNL1        0.0274
     17 H           0.7443    6.4049   -8.9132 H       1  UNL1        0.0274
     18 H           0.5502    6.2630   -7.1575 H       1  UNL1        0.0274
     19 C           0.7638    4.3968   -8.1784 C.2     1  UNL1       -0.0796
     20 C          -0.6784    4.0678   -8.3199 C.3     1  UNL1       -0.0440
     21 H          -0.8336    3.0106   -8.5919 H       1  UNL1        0.0274
     22 H          -1.2111    4.2518   -7.3773 H       1  UNL1        0.0274
     23 H          -1.1490    4.6862   -9.0955 H       1  UNL1        0.0274
     24 C           1.7371    3.4761   -8.1795 C.2     1  UNL1       -0.0850
     25 H           2.7877    3.7807   -8.0769 H       1  UNL1        0.0572
     26 C           1.5108    2.0134   -8.3088 C.3     1  UNL1       -0.0308
     27 H           1.6057    1.5452   -7.3012 H       1  UNL1        0.0310
     28 H           0.4711    1.8090   -8.6487 H       1  UNL1        0.0310
@<TRIPOS>BOND
     1     3     1    1
     2    10     9    1
     3     2     1    1
     4     1     4    1
     5     1    26    1
     6    13    11    1
     7    23    20    1
     8     9     4    2
     9     9    11    1
    10    17    15    1
    11    28    26    1
    12     4     5    1
    13    21    20    1
    14    11    14    1
    15    11    12    1
    16    20    19    1
    17    20    22    1
    18    26    24    1
    19    26    27    1
    20    24    19    2
    21    24    25    1
    22    19    15    1
    23    15    16    1
    24    15    18    1
    25     8     5    1
    26     5     6    1
    27     5     7    1
