@<TRIPOS>MOLECULE
/home/jramos/PycharmProjects/GeCos/examples/04-IsoP_localhost_openbabel_pm3/04-IsoP_g16_conformers/04-IsoP_030_gaussian.xyz
 28 27 0 0 0
SMALL
GASTEIGER

@<TRIPOS>ATOM
      1 C           2.8621    1.3300   -9.4294 C.3     1  UNL1       -0.0286
      2 H           2.4608    0.3675   -9.8054 H       1  UNL1        0.0313
      3 H           3.1273    1.9168  -10.3312 H       1  UNL1        0.0313
      4 C           4.0891    1.0768   -8.6067 C.2     1  UNL1       -0.0765
      5 C           5.1470    2.1174   -8.6765 C.3     1  UNL1       -0.0438
      6 H           5.9836    1.9031   -7.9920 H       1  UNL1        0.0274
      7 H           5.5549    2.1916   -9.6932 H       1  UNL1        0.0274
      8 H           4.7301    3.1032   -8.4087 H       1  UNL1        0.0274
      9 C           4.1925   -0.0317   -7.8608 C.2     1  UNL1       -0.0881
     10 H           3.3721   -0.7611   -7.8548 H       1  UNL1        0.0569
     11 C           5.3553   -0.3714   -7.0131 C.3     1  UNL1       -0.0466
     12 H           6.1292    0.4138   -7.0282 H       1  UNL1        0.0272
     13 H           5.0445   -0.5142   -5.9698 H       1  UNL1        0.0272
     14 H           5.8207   -1.3059   -7.3532 H       1  UNL1        0.0272
     15 C           1.5173    5.8958   -8.3533 C.3     1  UNL1       -0.0440
     16 H           2.5757    6.0264   -8.0918 H       1  UNL1        0.0274
     17 H           1.3257    6.4816   -9.2627 H       1  UNL1        0.0274
     18 H           0.9187    6.3357   -7.5442 H       1  UNL1        0.0274
     19 C           1.1493    4.4693   -8.5606 C.2     1  UNL1       -0.0796
     20 C          -0.2818    4.2206   -8.8737 C.3     1  UNL1       -0.0440
     21 H          -0.4536    3.1834   -9.2064 H       1  UNL1        0.0274
     22 H          -0.9070    4.3950   -7.9878 H       1  UNL1        0.0274
     23 H          -0.6345    4.8909   -9.6685 H       1  UNL1        0.0274
     24 C           2.0642    3.4957   -8.4624 C.2     1  UNL1       -0.0850
     25 H           3.1164    3.7399   -8.2356 H       1  UNL1        0.0572
     26 C           1.7737    2.0485   -8.6377 C.3     1  UNL1       -0.0308
     27 H           1.6622    1.5852   -7.6364 H       1  UNL1        0.0310
     28 H           0.7904    1.9155   -9.1440 H       1  UNL1        0.0310
@<TRIPOS>BOND
     1     3     1    1
     2     2     1    1
     3     7     5    1
     4    23    20    1
     5     1    26    1
     6     1     4    1
     7    17    15    1
     8    21    20    1
     9    28    26    1
    10    20    19    1
    11    20    22    1
    12     5     4    1
    13     5     8    1
    14     5     6    1
    15    26    24    1
    16    26    27    1
    17     4     9    2
    18    19    24    2
    19    19    15    1
    20    24    25    1
    21    15    16    1
    22    15    18    1
    23     9    10    1
    24     9    11    1
    25    14    11    1
    26    12    11    1
    27    11    13    1
