@<TRIPOS>MOLECULE
/home/jramos/PycharmProjects/GeCos/examples/04-IsoP_localhost_openbabel_pm3/04-IsoP_g16_conformers/04-IsoP_012_gaussian.xyz
 28 27 0 0 0
SMALL
GASTEIGER

@<TRIPOS>ATOM
      1 C           2.3463    1.3169   -9.0530 C.3     1  UNL11      -0.0286
      2 H           2.2081    1.2840  -10.1524 H       1  UNL11       0.0313
      3 H           1.8144    2.2255   -8.7076 H       1  UNL11       0.0313
      4 C           3.8136    1.4093   -8.7668 C.2     1  UNL11      -0.0765
      5 C           4.6375    0.2967   -9.3075 C.3     1  UNL11      -0.0438
      6 H           5.6543    0.2930   -8.8832 H       1  UNL11       0.0274
      7 H           4.1585   -0.6702   -9.0776 H       1  UNL11       0.0274
      8 H           4.7286    0.3758  -10.3986 H       1  UNL11       0.0274
      9 C           4.3223    2.4327   -8.0679 C.2     1  UNL11      -0.0881
     10 H           3.6593    3.2228   -7.6923 H       1  UNL11       0.0569
     11 C           5.7572    2.5941   -7.7486 C.3     1  UNL11      -0.0466
     12 H           6.3505    1.7102   -8.0373 H       1  UNL11       0.0272
     13 H           6.1740    3.4628   -8.2752 H       1  UNL11       0.0272
     14 H           5.9003    2.7564   -6.6724 H       1  UNL11       0.0272
     15 C           0.2692    0.0570   -4.8408 C.3     1  UNL11      -0.0440
     16 H           1.1668    0.4992   -4.3888 H       1  UNL11       0.0274
     17 H          -0.5778    0.7180   -4.6111 H       1  UNL11       0.0274
     18 H           0.0843   -0.9033   -4.3405 H       1  UNL11       0.0274
     19 C           0.4013   -0.1349   -6.3102 C.2     1  UNL11      -0.0796
     20 C          -0.7659   -0.7706   -6.9747 C.3     1  UNL11      -0.0440
     21 H          -0.6817   -0.7362   -8.0736 H       1  UNL11       0.0274
     22 H          -0.8520   -1.8249   -6.6792 H       1  UNL11       0.0274
     23 H          -1.7007   -0.2679   -6.6941 H       1  UNL11       0.0274
     24 C           1.5083    0.2454   -6.9621 C.2     1  UNL11      -0.0850
     25 H           2.3378    0.7165   -6.4170 H       1  UNL11       0.0572
     26 C           1.7247    0.0750   -8.4221 C.3     1  UNL11      -0.0308
     27 H           2.4001   -0.7971   -8.5853 H       1  UNL11       0.0310
     28 H           0.7672   -0.1751   -8.9309 H       1  UNL11       0.0310
@<TRIPOS>BOND
     1     3     1    1
     2    10     9    1
     3     2     1    1
     4     1     4    1
     5     1    26    1
     6    13    11    1
     7    23    20    1
     8     9     4    2
     9     9    11    1
    10    17    15    1
    11    28    26    1
    12     4     5    1
    13    21    20    1
    14    11    14    1
    15    11    12    1
    16    20    19    1
    17    20    22    1
    18    26    24    1
    19    26    27    1
    20    24    19    2
    21    24    25    1
    22    19    15    1
    23    15    16    1
    24    15    18    1
    25     8     5    1
    26     5     6    1
    27     5     7    1
