@<TRIPOS>MOLECULE
/home/jramos/PycharmProjects/GeCos/examples/04-IsoP_localhost_openbabel_pm3/04-IsoP_g16_conformers/04-IsoP_036_gaussian.xyz
 28 27 0 0 0
SMALL
GASTEIGER

@<TRIPOS>ATOM
      1 C           2.2726    1.0198   -8.8764 C.3     1  UNL1       -0.0286
      2 H           1.8885   -0.0202   -8.8826 H       1  UNL1        0.0313
      3 H           1.9180    1.4776   -9.8220 H       1  UNL1        0.0313
      4 C           3.7702    1.0391   -8.8842 C.2     1  UNL1       -0.0765
      5 C           4.3914    2.3859   -8.9821 C.3     1  UNL1       -0.0438
      6 H           5.4727    2.3570   -8.7731 H       1  UNL1        0.0274
      7 H           4.2540    2.8048   -9.9876 H       1  UNL1        0.0274
      8 H           3.9150    3.0734   -8.2620 H       1  UNL1        0.0274
      9 C           4.4784   -0.0958   -8.8114 C.2     1  UNL1       -0.0881
     10 H           3.9606   -1.0608   -8.7382 H       1  UNL1        0.0569
     11 C           5.9557   -0.1615   -8.8201 C.3     1  UNL1       -0.0466
     12 H           6.4184    0.8384   -8.7722 H       1  UNL1        0.0272
     13 H           6.3235   -0.7414   -7.9636 H       1  UNL1        0.0272
     14 H           6.3147   -0.6526   -9.7343 H       1  UNL1        0.0272
     15 C           2.1322    0.6097   -4.0351 C.3     1  UNL1       -0.0440
     16 H           1.6926   -0.3796   -4.2189 H       1  UNL1        0.0274
     17 H           3.1487    0.4539   -3.6484 H       1  UNL1        0.0274
     18 H           1.5460    1.0909   -3.2403 H       1  UNL1        0.0274
     19 C           2.1606    1.4616   -5.2547 C.2     1  UNL1       -0.0796
     20 C           2.6969    2.8332   -5.0560 C.3     1  UNL1       -0.0440
     21 H           2.8486    3.3588   -6.0139 H       1  UNL1        0.0274
     22 H           2.0062    3.4347   -4.4500 H       1  UNL1        0.0274
     23 H           3.6623    2.8054   -4.5337 H       1  UNL1        0.0274
     24 C           1.7247    0.9982   -6.4338 C.2     1  UNL1       -0.0850
     25 H           1.3491   -0.0310   -6.5121 H       1  UNL1        0.0572
     26 C           1.6972    1.7888   -7.6919 C.3     1  UNL1       -0.0308
     27 H           0.6451    2.0677   -7.8986 H       1  UNL1        0.0310
     28 H           2.2568    2.7504   -7.5693 H       1  UNL1        0.0310
@<TRIPOS>BOND
     1     7     5    1
     2     3     1    1
     3    14    11    1
     4     5     4    1
     5     5     6    1
     6     5     8    1
     7     4     1    1
     8     4     9    2
     9     2     1    1
    10     1    26    1
    11    11     9    1
    12    11    12    1
    13    11    13    1
    14     9    10    1
    15    27    26    1
    16    26    28    1
    17    26    24    1
    18    25    24    1
    19    24    19    2
    20    21    20    1
    21    19    20    1
    22    19    15    1
    23    20    23    1
    24    20    22    1
    25    16    15    1
    26    15    17    1
    27    15    18    1
