@<TRIPOS>MOLECULE
/home/jramos/PycharmProjects/GeCos/examples/04-IsoP_localhost_openbabel_pm3/04-IsoP_g16_conformers/04-IsoP_005_gaussian.xyz
 28 27 0 0 0
SMALL
GASTEIGER

@<TRIPOS>ATOM
      1 C           2.2644    1.4820   -9.0852 C.3     1  UNL1       -0.0286
      2 H           2.0671    0.6619   -9.8042 H       1  UNL1        0.0313
      3 H           2.0501    2.4201   -9.6363 H       1  UNL1        0.0313
      4 C           3.6982    1.4683   -8.6527 C.2     1  UNL1       -0.0765
      5 C           4.2645    2.7802   -8.2462 C.3     1  UNL1       -0.0438
      6 H           5.3008    2.6860   -7.8823 H       1  UNL1        0.0274
      7 H           4.2697    3.4800   -9.0927 H       1  UNL1        0.0274
      8 H           3.6656    3.2318   -7.4434 H       1  UNL1        0.0274
      9 C           4.3992    0.3263   -8.6452 C.2     1  UNL1       -0.0881
     10 H           3.9189   -0.6088   -8.9617 H       1  UNL1        0.0569
     11 C           5.8146    0.2094   -8.2339 C.3     1  UNL1       -0.0466
     12 H           6.2342    1.1713   -7.8954 H       1  UNL1        0.0272
     13 H           5.9197   -0.5093   -7.4105 H       1  UNL1        0.0272
     14 H           6.4307   -0.1484   -9.0693 H       1  UNL1        0.0272
     15 C          -2.4422    0.6660   -8.3719 C.3     1  UNL1       -0.0440
     16 H          -2.5975    1.5399   -9.0183 H       1  UNL1        0.0274
     17 H          -2.7531   -0.2236   -8.9367 H       1  UNL1        0.0274
     18 H          -3.1186    0.7649   -7.5119 H       1  UNL1        0.0274
     19 C          -1.0321    0.5312   -7.9163 C.2     1  UNL1       -0.0796
     20 C          -0.7664   -0.6179   -7.0124 C.3     1  UNL1       -0.0440
     21 H           0.3087   -0.7332   -6.7972 H       1  UNL1        0.0274
     22 H          -1.2866   -0.4846   -6.0544 H       1  UNL1        0.0274
     23 H          -1.1219   -1.5567   -7.4574 H       1  UNL1        0.0274
     24 C          -0.0916    1.4016   -8.3072 C.2     1  UNL1       -0.0850
     25 H          -0.3560    2.2280   -8.9805 H       1  UNL1        0.0572
     26 C           1.3329    1.3497   -7.8860 C.3     1  UNL1       -0.0308
     27 H           1.5184    2.1699   -7.1625 H       1  UNL1        0.0310
     28 H           1.5504    0.4064   -7.3355 H       1  UNL1        0.0310
@<TRIPOS>BOND
     1     2     1    1
     2     3     1    1
     3     7     5    1
     4     1     4    1
     5     1    26    1
     6    14    11    1
     7    16    15    1
     8    25    24    1
     9    10     9    1
    10    17    15    1
    11     4     9    2
    12     4     5    1
    13     9    11    1
    14    15    19    1
    15    15    18    1
    16    24    19    2
    17    24    26    1
    18     5     6    1
    19     5     8    1
    20    11    12    1
    21    11    13    1
    22    19    20    1
    23    26    28    1
    24    26    27    1
    25    23    20    1
    26    20    21    1
    27    20    22    1
