@<TRIPOS>MOLECULE
/home/jramos/PycharmProjects/GeCos/examples/04-IsoP_localhost_openbabel_pm3/04-IsoP_g16_conformers/04-IsoP_036_gaussian.xyz
 28 27 0 0 0
SMALL
GASTEIGER

@<TRIPOS>ATOM
      1 C           2.9317    0.2057   -9.2928 C.3     1  UNL11      -0.0286
      2 H           3.5288   -0.7101   -9.1084 H       1  UNL11       0.0313
      3 H           2.9043    0.3308  -10.3942 H       1  UNL11       0.0313
      4 C           3.6004    1.4101   -8.7051 C.2     1  UNL11      -0.0765
      5 C           2.9361    2.7100   -8.9848 C.3     1  UNL11      -0.0438
      6 H           3.3436    3.5230   -8.3629 H       1  UNL11       0.0274
      7 H           3.0659    2.9939  -10.0373 H       1  UNL11       0.0274
      8 H           1.8531    2.6293   -8.7880 H       1  UNL11       0.0274
      9 C           4.7236    1.2964   -7.9837 C.2     1  UNL11      -0.0881
     10 H           5.1650    0.3066   -7.8098 H       1  UNL11       0.0569
     11 C           5.4463    2.4348   -7.3768 C.3     1  UNL11      -0.0466
     12 H           4.8937    3.3835   -7.4808 H       1  UNL11       0.0272
     13 H           5.6143    2.2615   -6.3058 H       1  UNL11       0.0272
     14 H           6.4278    2.5659   -7.8514 H       1  UNL11       0.0272
     15 C           0.7563   -0.8558   -5.0777 C.3     1  UNL11      -0.0440
     16 H           1.3794   -1.7599   -5.0840 H       1  UNL11       0.0274
     17 H           1.1395   -0.1949   -4.2881 H       1  UNL11       0.0274
     18 H          -0.2614   -1.1560   -4.7929 H       1  UNL11       0.0274
     19 C           0.7482   -0.1542   -6.3898 C.2     1  UNL11      -0.0796
     20 C          -0.1208    1.0493   -6.4584 C.3     1  UNL11      -0.0440
     21 H           0.0375    1.6191   -7.3896 H       1  UNL11       0.0274
     22 H          -1.1806    0.7643   -6.4166 H       1  UNL11       0.0274
     23 H           0.0770    1.7249   -5.6157 H       1  UNL11       0.0274
     24 C           1.4809   -0.6007   -7.4188 C.2     1  UNL11      -0.0850
     25 H           2.1099   -1.4928   -7.2961 H       1  UNL11       0.0572
     26 C           1.5119    0.0260   -8.7659 C.3     1  UNL11      -0.0308
     27 H           0.9319   -0.6172   -9.4568 H       1  UNL11       0.0310
     28 H           0.9943    1.0184   -8.7546 H       1  UNL11       0.0310
@<TRIPOS>BOND
     1     7     5    1
     2     3     1    1
     3    14    11    1
     4     5     4    1
     5     5     6    1
     6     5     8    1
     7     4     1    1
     8     4     9    2
     9     2     1    1
    10     1    26    1
    11    11     9    1
    12    11    12    1
    13    11    13    1
    14     9    10    1
    15    27    26    1
    16    26    28    1
    17    26    24    1
    18    25    24    1
    19    24    19    2
    20    21    20    1
    21    19    20    1
    22    19    15    1
    23    20    23    1
    24    20    22    1
    25    16    15    1
    26    15    17    1
    27    15    18    1
