@<TRIPOS>MOLECULE
/home/jramos/PycharmProjects/GeCos/examples/04-IsoP_localhost_openbabel_pm3/04-IsoP_g16_conformers/04-IsoP_008_gaussian.xyz
 28 27 0 0 0
SMALL
GASTEIGER

@<TRIPOS>ATOM
      1 C           2.5591    0.8373   -9.1074 C.3     1  UNL1       -0.0286
      2 H           2.5425   -0.2433   -9.3520 H       1  UNL1        0.0313
      3 H           2.3249    1.3628  -10.0549 H       1  UNL1        0.0313
      4 C           3.9262    1.2326   -8.6371 C.2     1  UNL1       -0.0765
      5 C           4.7047    0.1789   -7.9366 C.3     1  UNL1       -0.0438
      6 H           5.6655    0.5599   -7.5544 H       1  UNL1        0.0274
      7 H           4.1290   -0.2155   -7.0821 H       1  UNL1        0.0274
      8 H           4.9200   -0.6604   -8.6110 H       1  UNL1        0.0274
      9 C           4.3878    2.4727   -8.8496 C.2     1  UNL1       -0.0881
     10 H           3.7594    3.2037   -9.3748 H       1  UNL1        0.0569
     11 C           5.7159    2.9621   -8.4226 C.3     1  UNL1       -0.0466
     12 H           6.2859    2.1987   -7.8675 H       1  UNL1        0.0272
     13 H           6.3156    3.2595   -9.2930 H       1  UNL1        0.0272
     14 H           5.6134    3.8409   -7.7725 H       1  UNL1        0.0272
     15 C           0.4310   -1.2550   -5.2464 C.3     1  UNL1       -0.0440
     16 H           1.4624   -1.4555   -4.9276 H       1  UNL1        0.0274
     17 H          -0.1141   -0.8603   -4.3782 H       1  UNL1        0.0274
     18 H          -0.0262   -2.2174   -5.5144 H       1  UNL1        0.0274
     19 C           0.3577   -0.3034   -6.3876 C.2     1  UNL1       -0.0796
     20 C          -1.0148    0.0454   -6.8378 C.3     1  UNL1       -0.0440
     21 H          -1.0048    0.5909   -7.7960 H       1  UNL1        0.0274
     22 H          -1.6277   -0.8557   -6.9708 H       1  UNL1        0.0274
     23 H          -1.5144    0.6827   -6.0959 H       1  UNL1        0.0274
     24 C           1.4680    0.1922   -6.9497 C.2     1  UNL1       -0.0850
     25 H           2.4630   -0.1092   -6.5793 H       1  UNL1        0.0572
     26 C           1.4790    1.1588   -8.0789 C.3     1  UNL1       -0.0308
     27 H           0.4815    1.1776   -8.5745 H       1  UNL1        0.0310
     28 H           1.6323    2.1787   -7.6714 H       1  UNL1        0.0310
@<TRIPOS>BOND
     1     3     1    1
     2    10     9    1
     3     2     1    1
     4    13    11    1
     5     1     4    1
     6     1    26    1
     7     9     4    2
     8     9    11    1
     9     4     5    1
    10     8     5    1
    11    27    26    1
    12    11    12    1
    13    11    14    1
    14    26    28    1
    15    26    24    1
    16     5     6    1
    17     5     7    1
    18    21    20    1
    19    22    20    1
    20    24    25    1
    21    24    19    2
    22    20    19    1
    23    20    23    1
    24    19    15    1
    25    18    15    1
    26    15    16    1
    27    15    17    1
