@<TRIPOS>MOLECULE
/home/jramos/PycharmProjects/GeCos/examples/04-IsoP_localhost_openbabel_pm3/04-IsoP_g16_conformers/04-IsoP_041_gaussian.xyz
 28 27 0 0 0
SMALL
GASTEIGER

@<TRIPOS>ATOM
      1 C           2.2789    1.2718   -8.9561 C.3     1  UNL1       -0.0286
      2 H           1.8027    0.3081   -9.2273 H       1  UNL1        0.0313
      3 H           2.0080    1.9779   -9.7668 H       1  UNL1        0.0313
      4 C           3.7667    1.1031   -8.9053 C.2     1  UNL1       -0.0765
      5 C           4.5675    2.2739   -9.3450 C.3     1  UNL1       -0.0438
      6 H           5.6476    2.1151   -9.1931 H       1  UNL1        0.0274
      7 H           4.4055    2.4768  -10.4120 H       1  UNL1        0.0274
      8 H           4.2724    3.1721   -8.7836 H       1  UNL1        0.0274
      9 C           4.3090   -0.0460   -8.4793 C.2     1  UNL1       -0.0881
     10 H           3.6567   -0.8723   -8.1684 H       1  UNL1        0.0569
     11 C           5.7611   -0.3078   -8.3864 C.3     1  UNL1       -0.0466
     12 H           6.3641    0.5728   -8.6635 H       1  UNL1        0.0272
     13 H           6.0380   -0.5939   -7.3633 H       1  UNL1        0.0272
     14 H           6.0479   -1.1324   -9.0524 H       1  UNL1        0.0272
     15 C           2.6494    5.1237   -5.9829 C.3     1  UNL1       -0.0440
     16 H           2.4410    5.7123   -6.8861 H       1  UNL1        0.0274
     17 H           2.0190    5.5201   -5.1754 H       1  UNL1        0.0274
     18 H           3.6966    5.3042   -5.7041 H       1  UNL1        0.0274
     19 C           2.4019    3.6692   -6.1751 C.2     1  UNL1       -0.0796
     20 C           2.6272    2.8235   -4.9742 C.3     1  UNL1       -0.0440
     21 H           2.5792    1.7485   -5.2142 H       1  UNL1        0.0274
     22 H           3.6117    3.0244   -4.5315 H       1  UNL1        0.0274
     23 H           1.8679    3.0297   -4.2081 H       1  UNL1        0.0274
     24 C           2.0020    3.1843   -7.3586 C.2     1  UNL1       -0.0850
     25 H           1.8604    3.8649   -8.2093 H       1  UNL1        0.0572
     26 C           1.7101    1.7511   -7.6251 C.3     1  UNL1       -0.0308
     27 H           2.0893    1.1120   -6.7953 H       1  UNL1        0.0310
     28 H           0.6086    1.6245   -7.6269 H       1  UNL1        0.0310
@<TRIPOS>BOND
     1     7     5    1
     2     3     1    1
     3     5     6    1
     4     5     4    1
     5     5     8    1
     6     2     1    1
     7    14    11    1
     8     1     4    1
     9     1    26    1
    10     4     9    2
    11    12    11    1
    12     9    11    1
    13     9    10    1
    14    11    13    1
    15    25    24    1
    16    28    26    1
    17    26    24    1
    18    26    27    1
    19    24    19    2
    20    16    15    1
    21    19    15    1
    22    19    20    1
    23    15    18    1
    24    15    17    1
    25    21    20    1
    26    20    22    1
    27    20    23    1
