@<TRIPOS>MOLECULE
/home/jramos/PycharmProjects/GeCos/examples/04-IsoP_localhost_openbabel_pm3/04-IsoP_g16_conformers/04-IsoP_028_gaussian.xyz
 28 27 0 0 0
SMALL
GASTEIGER

@<TRIPOS>ATOM
      1 C           2.2894    1.3839   -8.9813 C.3     1  UNL1       -0.0286
      2 H           1.8854    0.4439   -9.4087 H       1  UNL1        0.0313
      3 H           2.1425    2.1574   -9.7621 H       1  UNL1        0.0313
      4 C           3.7454    1.1771   -8.6978 C.2     1  UNL1       -0.0765
      5 C           4.0609    0.0856   -7.7395 C.3     1  UNL1       -0.0438
      6 H           5.1121    0.1169   -7.4110 H       1  UNL1        0.0274
      7 H           3.4145    0.1682   -6.8487 H       1  UNL1        0.0274
      8 H           3.8799   -0.8963   -8.1959 H       1  UNL1        0.0274
      9 C           4.6806    1.9356   -9.2851 C.2     1  UNL1       -0.0881
     10 H           4.3835    2.7289   -9.9831 H       1  UNL1        0.0569
     11 C           6.1354    1.7903   -9.0636 C.3     1  UNL1       -0.0466
     12 H           6.3658    1.0644   -8.2659 H       1  UNL1        0.0272
     13 H           6.6331    1.4483   -9.9807 H       1  UNL1        0.0272
     14 H           6.5829    2.7518   -8.7800 H       1  UNL1        0.0272
     15 C           2.0283    5.0855   -5.8415 C.3     1  UNL1       -0.0440
     16 H           1.8226    5.7058   -6.7239 H       1  UNL1        0.0274
     17 H           1.3181    5.3788   -5.0565 H       1  UNL1        0.0274
     18 H           3.0368    5.3383   -5.4867 H       1  UNL1        0.0274
     19 C           1.9233    3.6288   -6.1260 C.2     1  UNL1       -0.0796
     20 C           2.1366    2.7385   -4.9554 C.3     1  UNL1       -0.0440
     21 H           2.2126    1.6789   -5.2524 H       1  UNL1        0.0274
     22 H           3.0601    3.0034   -4.4239 H       1  UNL1        0.0274
     23 H           1.3045    2.8279   -4.2445 H       1  UNL1        0.0274
     24 C           1.6522    3.1815   -7.3596 C.2     1  UNL1       -0.0850
     25 H           1.5151    3.8957   -8.1826 H       1  UNL1        0.0572
     26 C           1.5080    1.7478   -7.7233 C.3     1  UNL1       -0.0308
     27 H           1.8379    1.0889   -6.8806 H       1  UNL1        0.0310
     28 H           0.4306    1.5392   -7.8751 H       1  UNL1        0.0310
@<TRIPOS>BOND
     1    10     9    1
     2    13    11    1
     3     3     1    1
     4     2     1    1
     5     9    11    1
     6     9     4    2
     7    11    14    1
     8    11    12    1
     9     1     4    1
    10     1    26    1
    11     4     5    1
    12     8     5    1
    13    25    24    1
    14    28    26    1
    15     5     6    1
    16     5     7    1
    17    26    24    1
    18    26    27    1
    19    24    19    2
    20    16    15    1
    21    19    15    1
    22    19    20    1
    23    15    18    1
    24    15    17    1
    25    21    20    1
    26    20    22    1
    27    20    23    1
