@<TRIPOS>MOLECULE
/home/jramos/PycharmProjects/GeCos/examples/04-IsoP_localhost_openbabel_pm3/04-IsoP_g16_conformers/04-IsoP_030_gaussian.xyz
 28 27 0 0 0
SMALL
GASTEIGER

@<TRIPOS>ATOM
      1 C           2.4864    2.2131   -7.8112 C.3     1  UNL11      -0.0286
      2 H           2.2324    3.1140   -8.4052 H       1  UNL11       0.0313
      3 H           2.3965    2.5188   -6.7499 H       1  UNL11       0.0313
      4 C           3.8964    1.7978   -8.1046 C.2     1  UNL11      -0.0765
      5 C           4.6505    1.2041   -6.9707 C.3     1  UNL11      -0.0438
      6 H           5.6499    0.8549   -7.2765 H       1  UNL11       0.0274
      7 H           4.7826    1.9368   -6.1637 H       1  UNL11       0.0274
      8 H           4.0995    0.3428   -6.5560 H       1  UNL11       0.0274
      9 C           4.4146    1.9635   -9.3293 C.2     1  UNL11      -0.0881
     10 H           3.8014    2.4095  -10.1231 H       1  UNL11       0.0569
     11 C           5.7888    1.5838   -9.7211 C.3     1  UNL11      -0.0466
     12 H           6.3436    1.1066   -8.8963 H       1  UNL11       0.0272
     13 H           5.7701    0.8792  -10.5628 H       1  UNL11       0.0272
     14 H           6.3575    2.4677  -10.0388 H       1  UNL11       0.0272
     15 C           0.4510   -1.6326   -5.6021 C.3     1  UNL11      -0.0440
     16 H           1.4850   -1.8808   -5.3285 H       1  UNL11       0.0274
     17 H          -0.0729   -1.3355   -4.6833 H       1  UNL11       0.0274
     18 H          -0.0244   -2.5513   -5.9716 H       1  UNL11       0.0274
     19 C           0.3709   -0.5543   -6.6239 C.2     1  UNL11      -0.0796
     20 C          -1.0017   -0.2020   -7.0707 C.3     1  UNL11      -0.0440
     21 H          -1.0118    0.7226   -7.6716 H       1  UNL11       0.0274
     22 H          -1.4253   -1.0058   -7.6877 H       1  UNL11       0.0274
     23 H          -1.6701   -0.0521   -6.2127 H       1  UNL11       0.0274
     24 C           1.4761    0.0389   -7.0943 C.2     1  UNL11      -0.0850
     25 H           2.4709   -0.2577   -6.7193 H       1  UNL11       0.0572
     26 C           1.4815    1.1091   -8.1258 C.3     1  UNL11      -0.0308
     27 H           1.7128    0.6525   -9.1096 H       1  UNL11       0.0310
     28 H           0.4620    1.5463   -8.2271 H       1  UNL11       0.0310
@<TRIPOS>BOND
     1     3     1    1
     2     2     1    1
     3     7     5    1
     4    23    20    1
     5     1    26    1
     6     1     4    1
     7    17    15    1
     8    21    20    1
     9    28    26    1
    10    20    19    1
    11    20    22    1
    12     5     4    1
    13     5     8    1
    14     5     6    1
    15    26    24    1
    16    26    27    1
    17     4     9    2
    18    19    24    2
    19    19    15    1
    20    24    25    1
    21    15    16    1
    22    15    18    1
    23     9    10    1
    24     9    11    1
    25    14    11    1
    26    12    11    1
    27    11    13    1
