@<TRIPOS>MOLECULE
/home/jramos/PycharmProjects/GeCos/examples/02-IsoP_trueno_rdkit_pm3/02-IsoP_g16_conformers/02-IsoP_238_gaussian.xyz
 28 27 0 0 0
SMALL
GASTEIGER

@<TRIPOS>ATOM
      1 C          -1.1417   -1.2642    0.5122 C.3     1  UNL11      -0.0286
      2 H          -1.8470   -1.9378   -0.0263 H       1  UNL11       0.0313
      3 H          -1.0815   -1.6473    1.5500 H       1  UNL11       0.0313
      4 C          -1.7040    0.1220    0.5183 C.2     1  UNL11      -0.0765
      5 C          -1.2337    1.0137    1.6112 C.3     1  UNL11      -0.0438
      6 H          -1.5899    2.0461    1.4999 H       1  UNL11       0.0274
      7 H          -1.5830    0.6443    2.5852 H       1  UNL11       0.0274
      8 H          -0.1340    1.0383    1.6406 H       1  UNL11       0.0274
      9 C          -2.5927    0.5489   -0.3900 C.2     1  UNL11      -0.0881
     10 H          -2.9727    1.5774   -0.3410 H       1  UNL11       0.0569
     11 C          -3.1272   -0.2799   -1.4919 C.3     1  UNL11      -0.0466
     12 H          -2.8969   -1.3500   -1.3548 H       1  UNL11       0.0272
     13 H          -4.2176   -0.1790   -1.5652 H       1  UNL11       0.0272
     14 H          -2.6976    0.0331   -2.4529 H       1  UNL11       0.0272
     15 C           3.3953    0.4043    1.1922 C.3     1  UNL11      -0.0440
     16 H           3.3920    1.4974    1.3031 H       1  UNL11       0.0274
     17 H           4.3783    0.1149    0.7965 H       1  UNL11       0.0274
     18 H           3.3002   -0.0308    2.1959 H       1  UNL11       0.0274
     19 C           2.3106   -0.0314    0.2716 C.2     1  UNL11      -0.0796
     20 C           2.4117    0.4865   -1.1174 C.3     1  UNL11      -0.0440
     21 H           1.5115    0.2531   -1.7096 H       1  UNL11       0.0274
     22 H           3.2752    0.0450   -1.6328 H       1  UNL11       0.0274
     23 H           2.5420    1.5768   -1.1212 H       1  UNL11       0.0274
     24 C           1.3253   -0.8364    0.6930 C.2     1  UNL11      -0.0850
     25 H           1.3079   -1.1794    1.7365 H       1  UNL11       0.0572
     26 C           0.2213   -1.3370   -0.1675 C.3     1  UNL11      -0.0308
     27 H           0.4478   -2.3916   -0.4248 H       1  UNL11       0.0310
     28 H           0.1961   -0.7865   -1.1354 H       1  UNL11       0.0310
@<TRIPOS>BOND
     1     6     5    1
     2    10     9    1
     3     5     7    1
     4     5     8    1
     5     5     4    1
     6     9     4    2
     7     9    11    1
     8    16    15    1
     9    23    20    1
    10    13    11    1
    11     4     1    1
    12    14    11    1
    13    11    12    1
    14    20    21    1
    15    20    19    1
    16    20    22    1
    17    15    18    1
    18    15    19    1
    19    15    17    1
    20    19    24    2
    21     1     3    1
    22     1    26    1
    23     1     2    1
    24    28    26    1
    25    24    25    1
    26    24    26    1
    27    26    27    1
