@<TRIPOS>MOLECULE
/home/jramos/PycharmProjects/GeCos/examples/02-IsoP_trueno_rdkit_pm3/02-IsoP_g16_conformers/02-IsoP_419_gaussian.xyz
 28 27 0 0 0
SMALL
GASTEIGER

@<TRIPOS>ATOM
      1 C          -1.4749    0.3364    1.1444 C.3     1  UNL1       -0.0286
      2 H          -2.1673    1.0044    1.6948 H       1  UNL1        0.0313
      3 H          -1.7220   -0.6980    1.4739 H       1  UNL1        0.0313
      4 C          -1.7432    0.4930   -0.3190 C.2     1  UNL1       -0.0765
      5 C          -1.5338    1.8624   -0.8638 C.3     1  UNL1       -0.0438
      6 H          -1.4935    1.8831   -1.9600 H       1  UNL1        0.0274
      7 H          -2.3438    2.5320   -0.5450 H       1  UNL1        0.0274
      8 H          -0.5854    2.2792   -0.4810 H       1  UNL1        0.0274
      9 C          -2.1580   -0.5083   -1.1066 C.2     1  UNL1       -0.0881
     10 H          -2.3457   -0.3190   -2.1716 H       1  UNL1        0.0569
     11 C          -2.3959   -1.8969   -0.6581 C.3     1  UNL1       -0.0466
     12 H          -1.7565   -2.5958   -1.2133 H       1  UNL1        0.0272
     13 H          -2.1877   -2.0346    0.4160 H       1  UNL1        0.0272
     14 H          -3.4400   -2.1868   -0.8358 H       1  UNL1        0.0272
     15 C           2.9889   -1.4090    0.3075 C.3     1  UNL1       -0.0440
     16 H           3.9751   -1.2421    0.7617 H       1  UNL1        0.0274
     17 H           2.5956   -2.3536    0.7058 H       1  UNL1        0.0274
     18 H           3.1403   -1.5424   -0.7725 H       1  UNL1        0.0274
     19 C           2.0880   -0.2547    0.5713 C.2     1  UNL1       -0.0796
     20 C           2.5941    1.0630    0.1068 C.3     1  UNL1       -0.0440
     21 H           1.8168    1.8439    0.1600 H       1  UNL1        0.0274
     22 H           3.4411    1.3915    0.7238 H       1  UNL1        0.0274
     23 H           2.9406    1.0067   -0.9335 H       1  UNL1        0.0274
     24 C           0.9102   -0.4214    1.1879 C.2     1  UNL1       -0.0850
     25 H           0.5902   -1.4262    1.4954 H       1  UNL1        0.0572
     26 C          -0.0352    0.6796    1.5084 C.3     1  UNL1       -0.0308
     27 H           0.2636    1.6235    0.9861 H       1  UNL1        0.0310
     28 H           0.0383    0.8905    2.5936 H       1  UNL1        0.0310
@<TRIPOS>BOND
     1    10     9    1
     2     6     5    1
     3    12    11    1
     4     9    11    1
     5     9     4    2
     6    23    20    1
     7     5     7    1
     8     5     8    1
     9     5     4    1
    10    14    11    1
    11    18    15    1
    12    11    13    1
    13     4     1    1
    14    20    21    1
    15    20    19    1
    16    20    22    1
    17    15    19    1
    18    15    17    1
    19    15    16    1
    20    19    24    2
    21    27    26    1
    22     1     3    1
    23     1    26    1
    24     1     2    1
    25    24    25    1
    26    24    26    1
    27    26    28    1
