@<TRIPOS>MOLECULE
/home/jramos/PycharmProjects/GeCos/examples/02-IsoP_trueno_rdkit_pm3/02-IsoP_g16_conformers/02-IsoP_238_gaussian.xyz
 28 27 0 0 0
SMALL
GASTEIGER

@<TRIPOS>ATOM
      1 C          -1.4824    0.4074    0.9382 C.3     1  UNL1       -0.0286
      2 H          -2.3022   -0.1217    1.4759 H       1  UNL1        0.0313
      3 H          -1.5955    1.4817    1.1846 H       1  UNL1        0.0313
      4 C          -1.6587    0.2064   -0.5336 C.2     1  UNL1       -0.0765
      5 C          -1.0450    1.2368   -1.4125 C.3     1  UNL1       -0.0438
      6 H          -1.1083    0.9787   -2.4776 H       1  UNL1        0.0274
      7 H          -1.5443    2.2058   -1.2746 H       1  UNL1        0.0274
      8 H           0.0177    1.3725   -1.1615 H       1  UNL1        0.0274
      9 C          -2.3400   -0.8268   -1.0487 C.2     1  UNL1       -0.0881
     10 H          -2.4380   -0.9282   -2.1371 H       1  UNL1        0.0569
     11 C          -2.9982   -1.8793   -0.2451 C.3     1  UNL1       -0.0466
     12 H          -3.0678   -1.6041    0.8209 H       1  UNL1        0.0272
     13 H          -4.0160   -2.0711   -0.6084 H       1  UNL1        0.0272
     14 H          -2.4374   -2.8213   -0.3103 H       1  UNL1        0.0272
     15 C           3.2772    1.3487    0.3987 C.3     1  UNL1       -0.0440
     16 H           3.5545    1.3388   -0.6644 H       1  UNL1        0.0274
     17 H           4.1736    1.0866    0.9769 H       1  UNL1        0.0274
     18 H           3.0032    2.3794    0.6600 H       1  UNL1        0.0274
     19 C           2.1808    0.3780    0.6624 C.2     1  UNL1       -0.0796
     20 C           2.5085   -1.0423    0.3737 C.3     1  UNL1       -0.0440
     21 H           1.6207   -1.6920    0.4471 H       1  UNL1        0.0274
     22 H           3.2579   -1.4181    1.0831 H       1  UNL1        0.0274
     23 H           2.9214   -1.1520   -0.6378 H       1  UNL1        0.0274
     24 C           0.9921    0.7847    1.1292 C.2     1  UNL1       -0.0850
     25 H           0.8144    1.8524    1.3167 H       1  UNL1        0.0572
     26 C          -0.1440   -0.1215    1.4423 C.3     1  UNL1       -0.0308
     27 H          -0.1865   -0.2384    2.5442 H       1  UNL1        0.0310
     28 H           0.0422   -1.1413    1.0352 H       1  UNL1        0.0310
@<TRIPOS>BOND
     1     6     5    1
     2    10     9    1
     3     5     7    1
     4     5     8    1
     5     5     4    1
     6     9     4    2
     7     9    11    1
     8    16    15    1
     9    23    20    1
    10    13    11    1
    11     4     1    1
    12    14    11    1
    13    11    12    1
    14    20    21    1
    15    20    19    1
    16    20    22    1
    17    15    18    1
    18    15    19    1
    19    15    17    1
    20    19    24    2
    21     1     3    1
    22     1    26    1
    23     1     2    1
    24    28    26    1
    25    24    25    1
    26    24    26    1
    27    26    27    1
