@<TRIPOS>MOLECULE
/home/jramos/PycharmProjects/GeCos/examples/02-IsoP_trueno_rdkit_pm3/02-IsoP_g16_conformers/02-IsoP_067_gaussian.xyz
 28 27 0 0 0
SMALL
GASTEIGER

@<TRIPOS>ATOM
      1 C          -1.0196   -0.9102    0.9632 C.3     1  UNL11      -0.0286
      2 H          -1.4155   -1.4479    1.8475 H       1  UNL11       0.0313
      3 H          -0.9012   -1.6762    0.1649 H       1  UNL11       0.0313
      4 C          -2.0239    0.1200    0.5522 C.2     1  UNL11      -0.0765
      5 C          -2.3512    1.1368    1.5887 C.3     1  UNL11      -0.0438
      6 H          -2.9901    0.7008    2.3683 H       1  UNL11       0.0274
      7 H          -1.4243    1.4891    2.0740 H       1  UNL11       0.0274
      8 H          -2.8722    2.0111    1.1787 H       1  UNL11       0.0274
      9 C          -2.6098    0.1447   -0.6524 C.2     1  UNL11      -0.0881
     10 H          -3.3449    0.9268   -0.8828 H       1  UNL11       0.0569
     11 C          -2.3477   -0.8211   -1.7409 C.3     1  UNL11      -0.0466
     12 H          -3.2769   -1.3172   -2.0506 H       1  UNL11       0.0272
     13 H          -1.9346   -0.3072   -2.6190 H       1  UNL11       0.0272
     14 H          -1.6309   -1.6050   -1.4447 H       1  UNL11       0.0272
     15 C           3.2723   -0.7680    0.9503 C.3     1  UNL11      -0.0440
     16 H           3.9560   -0.0299    1.3904 H       1  UNL11       0.0274
     17 H           3.8825   -1.5699    0.5142 H       1  UNL11       0.0274
     18 H           2.6778   -1.2049    1.7698 H       1  UNL11       0.0274
     19 C           2.4101   -0.1334   -0.0802 C.2     1  UNL11      -0.0796
     20 C           3.1074    0.2742   -1.3296 C.3     1  UNL11      -0.0440
     21 H           3.9262    0.9715   -1.1055 H       1  UNL11       0.0274
     22 H           2.4380    0.7676   -2.0466 H       1  UNL11       0.0274
     23 H           3.5451   -0.5996   -1.8316 H       1  UNL11       0.0274
     24 C           1.0960    0.0729    0.0793 C.2     1  UNL11      -0.0850
     25 H           0.5073    0.5409   -0.7218 H       1  UNL11       0.0572
     26 C           0.3313   -0.2893    1.3008 C.3     1  UNL11      -0.0308
     27 H           0.9235   -0.9835    1.9379 H       1  UNL11       0.0310
     28 H           0.1719    0.6306    1.9106 H       1  UNL11       0.0310
@<TRIPOS>BOND
     1    12    11    1
     2    14    11    1
     3     3     1    1
     4    11    13    1
     5    11     9    1
     6     2     1    1
     7     1     4    1
     8     1    26    1
     9    17    15    1
    10     9     4    2
    11     9    10    1
    12    27    26    1
    13    18    15    1
    14    23    20    1
    15     4     5    1
    16    26    24    1
    17    26    28    1
    18    15    19    1
    19    15    16    1
    20    24    19    2
    21    24    25    1
    22    19    20    1
    23    20    22    1
    24    20    21    1
    25     6     5    1
    26     5     7    1
    27     5     8    1
