@<TRIPOS>MOLECULE
/home/jramos/PycharmProjects/GeCos/examples/02-IsoP_trueno_rdkit_pm3/02-IsoP_g16_conformers/02-IsoP_067_gaussian.xyz
 28 27 0 0 0
SMALL
GASTEIGER

@<TRIPOS>ATOM
      1 C          -0.8053   -1.0928   -0.6449 C.3     1  UNL1       -0.0286
      2 H          -0.9730   -2.1043   -1.0651 H       1  UNL1        0.0313
      3 H          -0.6250   -0.4239   -1.5156 H       1  UNL1        0.0313
      4 C          -2.0437   -0.6766    0.0845 C.2     1  UNL1       -0.0765
      5 C          -2.4509   -1.5681    1.2046 C.3     1  UNL1       -0.0438
      6 H          -2.8881   -2.4982    0.8176 H       1  UNL1        0.0274
      7 H          -1.5671   -1.8395    1.8079 H       1  UNL1        0.0274
      8 H          -3.1874   -1.1042    1.8726 H       1  UNL1        0.0274
      9 C          -2.7600    0.4105   -0.2317 C.2     1  UNL1       -0.0881
     10 H          -3.6640    0.6512    0.3428 H       1  UNL1        0.0569
     11 C          -2.4329    1.3511   -1.3247 C.3     1  UNL1       -0.0466
     12 H          -3.2682    1.4273   -2.0331 H       1  UNL1        0.0272
     13 H          -2.2428    2.3553   -0.9231 H       1  UNL1        0.0272
     14 H          -1.5386    1.0432   -1.8916 H       1  UNL1        0.0272
     15 C           3.3304   -0.3949    0.2771 C.3     1  UNL1       -0.0440
     16 H           3.8923   -0.5958    1.1990 H       1  UNL1        0.0274
     17 H           4.0384   -0.0089   -0.4680 H       1  UNL1        0.0274
     18 H           2.9412   -1.3572   -0.0949 H       1  UNL1        0.0274
     19 C           2.2392    0.5811    0.5317 C.2     1  UNL1       -0.0796
     20 C           2.6835    1.9731    0.8113 C.3     1  UNL1       -0.0440
     21 H           3.3595    1.9967    1.6769 H       1  UNL1        0.0274
     22 H           1.8460    2.6501    1.0257 H       1  UNL1        0.0274
     23 H           3.2312    2.3848   -0.0475 H       1  UNL1        0.0274
     24 C           0.9392    0.2573    0.5202 C.2     1  UNL1       -0.0850
     25 H           0.1754    1.0244    0.7087 H       1  UNL1        0.0572
     26 C           0.4167   -1.1104    0.2666 C.3     1  UNL1       -0.0308
     27 H           1.2117   -1.7547   -0.1709 H       1  UNL1        0.0310
     28 H           0.1423   -1.5765    1.2417 H       1  UNL1        0.0310
@<TRIPOS>BOND
     1    12    11    1
     2    14    11    1
     3     3     1    1
     4    11    13    1
     5    11     9    1
     6     2     1    1
     7     1     4    1
     8     1    26    1
     9    17    15    1
    10     9     4    2
    11     9    10    1
    12    27    26    1
    13    18    15    1
    14    23    20    1
    15     4     5    1
    16    26    24    1
    17    26    28    1
    18    15    19    1
    19    15    16    1
    20    24    19    2
    21    24    25    1
    22    19    20    1
    23    20    22    1
    24    20    21    1
    25     6     5    1
    26     5     7    1
    27     5     8    1
