@<TRIPOS>MOLECULE
/home/jramos/PycharmProjects/GeCos/examples/02-IsoP_trueno_rdkit_pm3/02-IsoP_g16_conformers/02-IsoP_012_gaussian.xyz
 28 27 0 0 0
SMALL
GASTEIGER

@<TRIPOS>ATOM
      1 C          -0.9898    0.5523    0.2359 C.3     1  UNL1       -0.0286
      2 H          -0.6512    1.6055    0.1825 H       1  UNL1        0.0313
      3 H          -1.4800    0.4361    1.2298 H       1  UNL1        0.0313
      4 C          -1.9838    0.2883   -0.8498 C.2     1  UNL1       -0.0765
      5 C          -1.6593    0.8607   -2.1839 C.3     1  UNL1       -0.0438
      6 H          -1.6136    1.9573   -2.1319 H       1  UNL1        0.0274
      7 H          -0.6794    0.5058   -2.5338 H       1  UNL1        0.0274
      8 H          -2.4000    0.5955   -2.9500 H       1  UNL1        0.0274
      9 C          -3.1133   -0.4050   -0.6502 C.2     1  UNL1       -0.0881
     10 H          -3.8090   -0.5678   -1.4836 H       1  UNL1        0.0569
     11 C          -3.5200   -0.9896    0.6458 C.3     1  UNL1       -0.0466
     12 H          -3.4411   -2.0845    0.6158 H       1  UNL1        0.0272
     13 H          -4.5623   -0.7365    0.8787 H       1  UNL1        0.0272
     14 H          -2.8924   -0.6312    1.4790 H       1  UNL1        0.0272
     15 C           3.4127    0.2558    2.1954 C.3     1  UNL1       -0.0440
     16 H           2.8850    0.2791    3.1581 H       1  UNL1        0.0274
     17 H           4.1772   -0.5308    2.2551 H       1  UNL1        0.0274
     18 H           3.9343    1.2158    2.0800 H       1  UNL1        0.0274
     19 C           2.5003    0.0134    1.0452 C.2     1  UNL1       -0.0796
     20 C           3.1627   -0.0585   -0.2830 C.3     1  UNL1       -0.0440
     21 H           3.7835    0.8299   -0.4597 H       1  UNL1        0.0274
     22 H           2.4316   -0.1271   -1.1054 H       1  UNL1        0.0274
     23 H           3.8158   -0.9393   -0.3422 H       1  UNL1        0.0274
     24 C           1.1806   -0.1296    1.2262 C.2     1  UNL1       -0.0850
     25 H           0.7560   -0.0617    2.2368 H       1  UNL1        0.0572
     26 C           0.2029   -0.3912    0.1374 C.3     1  UNL1       -0.0308
     27 H           0.6888   -0.2987   -0.8610 H       1  UNL1        0.0310
     28 H          -0.1365   -1.4440    0.2104 H       1  UNL1        0.0310
@<TRIPOS>BOND
     1     8     5    1
     2     7     5    1
     3     5     6    1
     4     5     4    1
     5    10     9    1
     6    22    20    1
     7    27    26    1
     8     4     9    2
     9     4     1    1
    10     9    11    1
    11    21    20    1
    12    23    20    1
    13    20    19    1
    14    26    28    1
    15    26     1    1
    16    26    24    1
    17     2     1    1
    18     1     3    1
    19    12    11    1
    20    11    13    1
    21    11    14    1
    22    19    24    2
    23    19    15    1
    24    24    25    1
    25    18    15    1
    26    15    17    1
    27    15    16    1
