@<TRIPOS>MOLECULE
/home/jramos/PycharmProjects/GeCos/examples/02-IsoP_trueno_rdkit_pm3/02-IsoP_g16_conformers/02-IsoP_192_gaussian.xyz
 28 27 0 0 0
SMALL
GASTEIGER

@<TRIPOS>ATOM
      1 C          -1.0584    0.0438    1.2418 C.3     1  UNL11      -0.0286
      2 H          -1.4796    0.4078    2.1999 H       1  UNL11       0.0313
      3 H          -0.9853   -1.0624    1.3382 H       1  UNL11       0.0313
      4 C          -2.0064    0.4097    0.1435 C.2     1  UNL11      -0.0765
      5 C          -2.2732    1.8663   -0.0060 C.3     1  UNL11      -0.0438
      6 H          -2.7468    2.1169   -0.9635 H       1  UNL11       0.0274
      7 H          -1.3265    2.4299    0.0637 H       1  UNL11       0.0274
      8 H          -2.9322    2.2218    0.7974 H       1  UNL11       0.0274
      9 C          -2.5947   -0.4886   -0.6576 C.2     1  UNL11      -0.0881
     10 H          -3.2867   -0.1483   -1.4390 H       1  UNL11       0.0569
     11 C          -2.3903   -1.9511   -0.5832 C.3     1  UNL11      -0.0466
     12 H          -3.3465   -2.4685   -0.4307 H       1  UNL11       0.0272
     13 H          -1.9530   -2.3259   -1.5181 H       1  UNL11       0.0272
     14 H          -1.7164   -2.2406    0.2403 H       1  UNL11       0.0272
     15 C           3.1181   -1.1483   -0.9555 C.3     1  UNL11      -0.0440
     16 H           3.9748   -0.5668   -1.3227 H       1  UNL11       0.0274
     17 H           2.4740   -1.3699   -1.8167 H       1  UNL11       0.0274
     18 H           3.5052   -2.1039   -0.5763 H       1  UNL11       0.0274
     19 C           2.4046   -0.4076    0.1195 C.2     1  UNL11      -0.0796
     20 C           3.2348   -0.0385    1.2953 C.3     1  UNL11      -0.0440
     21 H           3.7983   -0.9043    1.6672 H       1  UNL11       0.0274
     22 H           3.9597    0.7416    1.0271 H       1  UNL11       0.0274
     23 H           2.6206    0.3459    2.1264 H       1  UNL11       0.0274
     24 C           1.1043   -0.1046    0.0072 C.2     1  UNL11      -0.0850
     25 H           0.5390   -0.4105   -0.8838 H       1  UNL11       0.0572
     26 C           0.3260    0.6454    1.0267 C.3     1  UNL11      -0.0308
     27 H           0.2196    1.7033    0.6907 H       1  UNL11       0.0310
     28 H           0.8817    0.6817    1.9902 H       1  UNL11       0.0310
@<TRIPOS>BOND
     1     6     5    1
     2     7     5    1
     3     5     8    1
     4     5     4    1
     5    10     9    1
     6     9     4    2
     7     9    11    1
     8     4     1    1
     9    27    26    1
    10    25    24    1
    11    13    11    1
    12    17    15    1
    13    11    12    1
    14    11    14    1
    15    24    26    1
    16    24    19    2
    17    26     1    1
    18    26    28    1
    19    16    15    1
    20     1     2    1
    21     1     3    1
    22    15    19    1
    23    15    18    1
    24    19    20    1
    25    22    20    1
    26    20    23    1
    27    20    21    1
