@<TRIPOS>MOLECULE
/home/jramos/PycharmProjects/GeCos/examples/02-IsoP_trueno_rdkit_pm3/02-IsoP_g16_conformers/02-IsoP_295_gaussian.xyz
 28 27 0 0 0
SMALL
GASTEIGER

@<TRIPOS>ATOM
      1 C          -0.7941    0.7862    0.1715 C.3     1  UNL11      -0.0286
      2 H          -0.6763    1.8331    0.5156 H       1  UNL11       0.0313
      3 H          -0.6110    0.8007   -0.9269 H       1  UNL11       0.0313
      4 C          -2.1894    0.3227    0.4448 C.2     1  UNL11      -0.0765
      5 C          -2.7502    0.6903    1.7728 C.3     1  UNL11      -0.0438
      6 H          -2.1122    0.3125    2.5843 H       1  UNL11       0.0274
      7 H          -2.8066    1.7826    1.8784 H       1  UNL11       0.0274
      8 H          -3.7599    0.2892    1.9317 H       1  UNL11       0.0274
      9 C          -2.9146   -0.3690   -0.4452 C.2     1  UNL11      -0.0881
     10 H          -3.9357   -0.6827   -0.1920 H       1  UNL11       0.0569
     11 C          -2.4413   -0.7586   -1.7909 C.3     1  UNL11      -0.0466
     12 H          -1.4961   -0.2581   -2.0608 H       1  UNL11       0.0272
     13 H          -2.2707   -1.8422   -1.8399 H       1  UNL11       0.0272
     14 H          -3.1859   -0.5031   -2.5558 H       1  UNL11       0.0272
     15 C           3.9880    0.1602   -0.0339 C.3     1  UNL11      -0.0440
     16 H           4.7234   -0.3612    0.5939 H       1  UNL11       0.0274
     17 H           4.0463    1.2301    0.2062 H       1  UNL11       0.0274
     18 H           4.3000    0.0376   -1.0800 H       1  UNL11       0.0274
     19 C           2.6268   -0.4029    0.1766 C.2     1  UNL11      -0.0796
     20 C           2.4929   -1.8559   -0.1046 C.3     1  UNL11      -0.0440
     21 H           3.0782   -2.4444    0.6145 H       1  UNL11       0.0274
     22 H           1.4453   -2.1934   -0.0406 H       1  UNL11       0.0274
     23 H           2.8615   -2.0957   -1.1107 H       1  UNL11       0.0274
     24 C           1.6146    0.3692    0.5943 C.2     1  UNL11      -0.0850
     25 H           1.7822    1.4385    0.7805 H       1  UNL11       0.0572
     26 C           0.2323   -0.1157    0.8462 C.3     1  UNL11      -0.0308
     27 H           0.0622   -0.1442    1.9420 H       1  UNL11       0.0310
     28 H           0.1089   -1.1648    0.4937 H       1  UNL11       0.0310
@<TRIPOS>BOND
     1     7     5    1
     2     6     5    1
     3     8     5    1
     4     5     4    1
     5     2     1    1
     6    27    26    1
     7    25    24    1
     8     4     1    1
     9     4     9    2
    10     1    26    1
    11     1     3    1
    12    26    24    1
    13    26    28    1
    14    10     9    1
    15    24    19    2
    16     9    11    1
    17    17    15    1
    18    19    15    1
    19    19    20    1
    20    15    16    1
    21    15    18    1
    22    11    12    1
    23    11    14    1
    24    11    13    1
    25    22    20    1
    26    21    20    1
    27    20    23    1
