@<TRIPOS>MOLECULE
/home/jramos/PycharmProjects/GeCos/examples/02-IsoP_trueno_rdkit_pm3/02-IsoP_g16_conformers/02-IsoP_166_gaussian.xyz
 28 27 0 0 0
SMALL
GASTEIGER

@<TRIPOS>ATOM
      1 C          -0.9227   -0.0426    0.9336 C.3     1  UNL11      -0.0286
      2 H          -0.8525   -1.1539    0.9438 H       1  UNL11       0.0313
      3 H          -0.9390    0.2733    1.9957 H       1  UNL11       0.0313
      4 C          -2.1935    0.3771    0.2662 C.2     1  UNL11      -0.0765
      5 C          -2.6728    1.7498    0.5811 C.3     1  UNL11      -0.0438
      6 H          -3.5858    2.0158    0.0321 H       1  UNL11       0.0274
      7 H          -2.8909    1.8455    1.6538 H       1  UNL11       0.0274
      8 H          -1.9068    2.4977    0.3319 H       1  UNL11       0.0274
      9 C          -2.8837   -0.4251   -0.5564 C.2     1  UNL11      -0.0881
     10 H          -3.8124   -0.0655   -1.0180 H       1  UNL11       0.0569
     11 C          -2.4886   -1.8062   -0.9071 C.3     1  UNL11      -0.0466
     12 H          -2.1541   -1.8573   -1.9519 H       1  UNL11       0.0272
     13 H          -1.6655   -2.1774   -0.2734 H       1  UNL11       0.0272
     14 H          -3.3354   -2.4953   -0.7939 H       1  UNL11       0.0272
     15 C           2.6982   -0.6134   -1.1699 C.3     1  UNL11      -0.0440
     16 H           3.0000   -1.6482   -1.3790 H       1  UNL11       0.0274
     17 H           3.4368    0.0509   -1.6382 H       1  UNL11       0.0274
     18 H           1.7286   -0.4389   -1.6648 H       1  UNL11       0.0274
     19 C           2.6272   -0.3674    0.2939 C.2     1  UNL11      -0.0796
     20 C           3.8548   -0.7225    1.0562 C.3     1  UNL11      -0.0440
     21 H           4.0785   -1.7931    0.9528 H       1  UNL11       0.0274
     22 H           3.7662   -0.5046    2.1286 H       1  UNL11       0.0274
     23 H           4.7214   -0.1654    0.6749 H       1  UNL11       0.0274
     24 C           1.5514    0.1398    0.9105 C.2     1  UNL11      -0.0850
     25 H           1.5649    0.2933    1.9979 H       1  UNL11       0.0572
     26 C           0.2945    0.5371    0.2235 C.3     1  UNL11      -0.0308
     27 H           0.2392    1.6448    0.2013 H       1  UNL11       0.0310
     28 H           0.3050    0.2137   -0.8420 H       1  UNL11       0.0310
@<TRIPOS>BOND
     1     8     5    1
     2     6     5    1
     3     5     7    1
     4     5     4    1
     5    27    26    1
     6    10     9    1
     7     4     9    2
     8     4     1    1
     9    26    28    1
    10    26     1    1
    11    26    24    1
    12     9    11    1
    13     3     1    1
    14     1     2    1
    15    17    15    1
    16    24    25    1
    17    24    19    2
    18    18    15    1
    19    15    19    1
    20    15    16    1
    21    19    20    1
    22    12    11    1
    23    11    14    1
    24    11    13    1
    25    23    20    1
    26    20    22    1
    27    20    21    1
