@<TRIPOS>MOLECULE
/home/jramos/PycharmProjects/GeCos/examples/02-IsoP_trueno_rdkit_pm3/02-IsoP_g16_conformers/02-IsoP_012_gaussian.xyz
 28 27 0 0 0
SMALL
GASTEIGER

@<TRIPOS>ATOM
      1 C          -0.8978   -0.3758    0.7019 C.3     1  UNL11      -0.0286
      2 H          -0.6276   -0.1534    1.7527 H       1  UNL11       0.0313
      3 H          -1.1265   -1.4658    0.6665 H       1  UNL11       0.0313
      4 C          -2.1135    0.4065    0.3191 C.2     1  UNL11      -0.0765
      5 C          -2.1475    1.8223    0.7742 C.3     1  UNL11      -0.0438
      6 H          -2.1374    1.8746    1.8717 H       1  UNL11       0.0274
      7 H          -1.2676    2.3714    0.4096 H       1  UNL11       0.0274
      8 H          -3.0400    2.3581    0.4247 H       1  UNL11       0.0274
      9 C          -3.1300   -0.1215   -0.3768 C.2     1  UNL11      -0.0881
     10 H          -3.9996    0.4989   -0.6295 H       1  UNL11       0.0569
     11 C          -3.1843   -1.5217   -0.8492 C.3     1  UNL11      -0.0466
     12 H          -3.0684   -1.5645   -1.9404 H       1  UNL11       0.0272
     13 H          -4.1487   -1.9816   -0.5980 H       1  UNL11       0.0272
     14 H          -2.3891   -2.1423   -0.4032 H       1  UNL11       0.0272
     15 C           3.8573   -1.2112    0.6781 C.3     1  UNL11      -0.0440
     16 H           3.5788   -2.2687    0.7780 H       1  UNL11       0.0274
     17 H           4.6464   -1.1465   -0.0835 H       1  UNL11       0.0274
     18 H           4.2938   -0.8917    1.6344 H       1  UNL11       0.0274
     19 C           2.7041   -0.3448    0.3127 C.2     1  UNL11      -0.0796
     20 C           3.0266    1.0947    0.1340 C.3     1  UNL11      -0.0440
     21 H           3.5473    1.4918    1.0154 H       1  UNL11       0.0274
     22 H           2.1213    1.7036   -0.0247 H       1  UNL11       0.0274
     23 H           3.6828    1.2390   -0.7346 H       1  UNL11       0.0274
     24 C           1.4753   -0.8557    0.1590 C.2     1  UNL11      -0.0850
     25 H           1.3063   -1.9304    0.3098 H       1  UNL11       0.0572
     26 C           0.2745   -0.0662   -0.2213 C.3     1  UNL11      -0.0308
     27 H           0.4990    1.0251   -0.2100 H       1  UNL11       0.0310
     28 H           0.0083   -0.3077   -1.2700 H       1  UNL11       0.0310
@<TRIPOS>BOND
     1     8     5    1
     2     7     5    1
     3     5     6    1
     4     5     4    1
     5    10     9    1
     6    22    20    1
     7    27    26    1
     8     4     9    2
     9     4     1    1
    10     9    11    1
    11    21    20    1
    12    23    20    1
    13    20    19    1
    14    26    28    1
    15    26     1    1
    16    26    24    1
    17     2     1    1
    18     1     3    1
    19    12    11    1
    20    11    13    1
    21    11    14    1
    22    19    24    2
    23    19    15    1
    24    24    25    1
    25    18    15    1
    26    15    17    1
    27    15    16    1
