@<TRIPOS>MOLECULE
/home/jramos/PycharmProjects/GITHUB_REPO_DIR/GeCos_tutorials/C001_EVOH_CCCOCC_localhost/opt/Model01_EVOH_opt.pdb
 18 17 0 0 0
SMALL
GASTEIGER

@<TRIPOS>ATOM
      1  C         -2.5350   -0.0100    0.2110 C.3     0  UNK0       -0.0629
      2  H         -3.4230   -0.5920   -0.0450 H       0  UNK0        0.0231
      3  H         -2.5600    0.1790    1.2900 H       0  UNK0        0.0231
      4  H         -2.6170    0.9500   -0.3070 H       0  UNK0        0.0231
      5  C         -1.2550   -0.7380   -0.1910 C.3     0  UNK0       -0.0297
      6  H         -1.2300   -0.8740   -1.2780 H       0  UNK0        0.0287
      7  H         -1.2340   -1.7360    0.2620 H       0  UNK0        0.0287
      8  C          0.0100    0.0130    0.2260 C.3     0  UNK0        0.0548
      9  O          0.0400    1.3180   -0.3350 O.3     0  UNK0       -0.3918
     10  H         -0.6330    1.8510    0.1010 H       0  UNK0        0.2098
     11  H          0.0310    0.0800    1.3290 H       0  UNK0        0.0593
     12  C          1.2760   -0.6910   -0.2410 C.3     0  UNK0       -0.0297
     13  H          1.2500   -1.7280    0.1110 H       0  UNK0        0.0287
     14  H          1.2550   -0.7220   -1.3370 H       0  UNK0        0.0287
     15  C          2.5450    0.0070    0.2390 C.3     0  UNK0       -0.0629
     16  H          2.5940    0.0150    1.3330 H       0  UNK0        0.0231
     17  H          3.4410   -0.4960   -0.1340 H       0  UNK0        0.0231
     18  H          2.5570    1.0420   -0.1070 H       0  UNK0        0.0231
@<TRIPOS>BOND
     1    14    12    1
     2     6     5    1
     3     9    10    1
     4     9     8    1
     5     4     1    1
     6    12    13    1
     7    12     8    1
     8    12    15    1
     9     5     1    1
    10     5     8    1
    11     5     7    1
    12    17    15    1
    13    18    15    1
    14     2     1    1
    15     1     3    1
    16     8    11    1
    17    15    16    1
@<TRIPOS>MOLECULE
/home/jramos/PycharmProjects/GITHUB_REPO_DIR/GeCos_tutorials/C001_EVOH_CCCOCC_localhost/opt/Model01_EVOH_opt.pdb
 18 17 0 0 0
SMALL
GASTEIGER

@<TRIPOS>ATOM
      1  C         -2.5345   -0.0351    0.2548 C.3     0  UNK0       -0.0629
      2  H         -3.4214   -0.6182   -0.0028 H       0  UNK0        0.0231
      3  H         -2.5421    0.1216    1.3392 H       0  UNK0        0.0231
      4  H         -2.6349    0.9389   -0.2329 H       0  UNK0        0.0231
      5  C         -1.2550   -0.7380   -0.1910 C.3     0  UNK0       -0.0297
      6  H         -1.2480   -0.8415   -1.2818 H       0  UNK0        0.0287
      7  H         -1.2164   -1.7487    0.2316 H       0  UNK0        0.0287
      8  C          0.0100    0.0130    0.2260 C.3     0  UNK0        0.0548
      9  O          0.0400    1.3180   -0.3350 O.3     0  UNK0       -0.3918
     10  H         -0.6330    1.8510    0.1010 H       0  UNK0        0.2098
     11  H          0.0310    0.0800    1.3290 H       0  UNK0        0.0593
     12  C          1.2760   -0.6910   -0.2410 C.3     0  UNK0       -0.0297
     13  H          1.2620   -1.7207    0.1325 H       0  UNK0        0.0287
     14  H          1.2428   -0.7448   -1.3358 H       0  UNK0        0.0287
     15  C          2.5450    0.0262    0.2099 C.3     0  UNK0       -0.0629
     16  H          2.6063    0.0572    1.3029 H       0  UNK0        0.0231
     17  H          3.4405   -0.4777   -0.1630 H       0  UNK0        0.0231
     18  H          2.5450    1.0539   -0.1574 H       0  UNK0        0.0231
@<TRIPOS>BOND
     1    14    12    1
     2     6     5    1
     3     9    10    1
     4     9     8    1
     5     4     1    1
     6    12    13    1
     7    12     8    1
     8    12    15    1
     9     5     1    1
    10     5     8    1
    11     5     7    1
    12    17    15    1
    13    18    15    1
    14     2     1    1
    15     1     3    1
    16     8    11    1
    17    15    16    1
@<TRIPOS>MOLECULE
/home/jramos/PycharmProjects/GITHUB_REPO_DIR/GeCos_tutorials/C001_EVOH_CCCOCC_localhost/opt/Model01_EVOH_opt.pdb
 18 17 0 0 0
SMALL
GASTEIGER

@<TRIPOS>ATOM
      1  C         -2.5345   -0.0351    0.2548 C.3     0  UNK0       -0.0629
      2  H         -3.4214   -0.6182   -0.0028 H       0  UNK0        0.0231
      3  H         -2.5421    0.1216    1.3392 H       0  UNK0        0.0231
      4  H         -2.6349    0.9389   -0.2329 H       0  UNK0        0.0231
      5  C         -1.2550   -0.7380   -0.1910 C.3     0  UNK0       -0.0297
      6  H         -1.2480   -0.8415   -1.2818 H       0  UNK0        0.0287
      7  H         -1.2164   -1.7487    0.2316 H       0  UNK0        0.0287
      8  C          0.0100    0.0130    0.2260 C.3     0  UNK0        0.0548
      9  O          0.0400    1.3180   -0.3350 O.3     0  UNK0       -0.3918
     10  H         -0.6330    1.8510    0.1010 H       0  UNK0        0.2098
     11  H          0.0310    0.0800    1.3290 H       0  UNK0        0.0593
     12  C          1.2760   -0.6910   -0.2410 C.3     0  UNK0       -0.0297
     13  H          1.2965   -0.6844   -1.3362 H       0  UNK0        0.0287
     14  H          2.1326   -0.0978    0.1010 H       0  UNK0        0.0287
     15  C          1.3819   -2.1178    0.2891 C.3     0  UNK0       -0.0629
     16  H          0.5490   -2.7297   -0.0731 H       0  UNK0        0.0231
     17  H          2.3126   -2.5932   -0.0315 H       0  UNK0        0.0231
     18  H          1.3497   -2.1155    1.3800 H       0  UNK0        0.0231
@<TRIPOS>BOND
     1    14    12    1
     2     6     5    1
     3     9    10    1
     4     9     8    1
     5     4     1    1
     6    12    13    1
     7    12     8    1
     8    12    15    1
     9     5     1    1
    10     5     8    1
    11     5     7    1
    12    17    15    1
    13    18    15    1
    14     2     1    1
    15     1     3    1
    16     8    11    1
    17    15    16    1
@<TRIPOS>MOLECULE
/home/jramos/PycharmProjects/GITHUB_REPO_DIR/GeCos_tutorials/C001_EVOH_CCCOCC_localhost/opt/Model01_EVOH_opt.pdb
 18 17 0 0 0
SMALL
GASTEIGER

@<TRIPOS>ATOM
      1  C         -1.3732   -0.9038   -1.7038 C.3     0  UNK0       -0.0629
      2  H         -2.3109   -1.3906   -1.9804 H       0  UNK0        0.0231
      3  H         -1.3389    0.0665   -2.2116 H       0  UNK0        0.0231
      4  H         -0.5599   -1.5232   -2.0931 H       0  UNK0        0.0231
      5  C         -1.2550   -0.7380   -0.1910 C.3     0  UNK0       -0.0297
      6  H         -1.2440   -1.7218    0.2914 H       0  UNK0        0.0287
      7  H         -2.1261   -0.1962    0.1953 H       0  UNK0        0.0287
      8  C          0.0100    0.0130    0.2260 C.3     0  UNK0        0.0548
      9  O          0.0400    1.3180   -0.3350 O.3     0  UNK0       -0.3918
     10  H         -0.6330    1.8510    0.1010 H       0  UNK0        0.2098
     11  H          0.0310    0.0800    1.3290 H       0  UNK0        0.0593
     12  C          1.2760   -0.6910   -0.2410 C.3     0  UNK0       -0.0297
     13  H          1.2620   -1.7207    0.1325 H       0  UNK0        0.0287
     14  H          1.2428   -0.7448   -1.3358 H       0  UNK0        0.0287
     15  C          2.5450    0.0262    0.2099 C.3     0  UNK0       -0.0629
     16  H          2.6063    0.0572    1.3029 H       0  UNK0        0.0231
     17  H          3.4405   -0.4777   -0.1630 H       0  UNK0        0.0231
     18  H          2.5450    1.0539   -0.1574 H       0  UNK0        0.0231
@<TRIPOS>BOND
     1    14    12    1
     2     6     5    1
     3     9    10    1
     4     9     8    1
     5     4     1    1
     6    12    13    1
     7    12     8    1
     8    12    15    1
     9     5     1    1
    10     5     8    1
    11     5     7    1
    12    17    15    1
    13    18    15    1
    14     2     1    1
    15     1     3    1
    16     8    11    1
    17    15    16    1
@<TRIPOS>MOLECULE
/home/jramos/PycharmProjects/GITHUB_REPO_DIR/GeCos_tutorials/C001_EVOH_CCCOCC_localhost/opt/Model01_EVOH_opt.pdb
 18 17 0 0 0
SMALL
GASTEIGER

@<TRIPOS>ATOM
      1  C         -2.5345   -0.0351    0.2548 C.3     0  UNK0       -0.0629
      2  H         -3.4214   -0.6182   -0.0028 H       0  UNK0        0.0231
      3  H         -2.5421    0.1216    1.3392 H       0  UNK0        0.0231
      4  H         -2.6349    0.9389   -0.2329 H       0  UNK0        0.0231
      5  C         -1.2550   -0.7380   -0.1910 C.3     0  UNK0       -0.0297
      6  H         -1.2480   -0.8415   -1.2818 H       0  UNK0        0.0287
      7  H         -1.2164   -1.7487    0.2316 H       0  UNK0        0.0287
      8  C          0.0100    0.0130    0.2260 C.3     0  UNK0        0.0548
      9  O          0.0400    1.3180   -0.3350 O.3     0  UNK0       -0.3918
     10  H         -0.6330    1.8510    0.1010 H       0  UNK0        0.2098
     11  H          0.0310    0.0800    1.3290 H       0  UNK0        0.0593
     12  C          1.2760   -0.6910   -0.2410 C.3     0  UNK0       -0.0297
     13  H          2.1430   -0.1537    0.1585 H       0  UNK0        0.0287
     14  H          1.2840   -1.6928    0.2051 H       0  UNK0        0.0287
     15  C          1.3620   -0.7938   -1.7609 C.3     0  UNK0       -0.0629
     16  H          1.3883    0.2016   -2.2168 H       0  UNK0        0.0231
     17  H          2.2617   -1.3304   -2.0730 H       0  UNK0        0.0231
     18  H          0.4893   -1.3206   -2.1507 H       0  UNK0        0.0231
@<TRIPOS>BOND
     1    14    12    1
     2     6     5    1
     3     9    10    1
     4     9     8    1
     5     4     1    1
     6    12    13    1
     7    12     8    1
     8    12    15    1
     9     5     1    1
    10     5     8    1
    11     5     7    1
    12    17    15    1
    13    18    15    1
    14     2     1    1
    15     1     3    1
    16     8    11    1
    17    15    16    1
@<TRIPOS>MOLECULE
/home/jramos/PycharmProjects/GITHUB_REPO_DIR/GeCos_tutorials/C001_EVOH_CCCOCC_localhost/opt/Model01_EVOH_opt.pdb
 18 17 0 0 0
SMALL
GASTEIGER

@<TRIPOS>ATOM
      1  C         -1.3732   -0.9038   -1.7038 C.3     0  UNK0       -0.0629
      2  H         -2.3109   -1.3906   -1.9804 H       0  UNK0        0.0231
      3  H         -1.3389    0.0665   -2.2116 H       0  UNK0        0.0231
      4  H         -0.5599   -1.5232   -2.0931 H       0  UNK0        0.0231
      5  C         -1.2550   -0.7380   -0.1910 C.3     0  UNK0       -0.0297
      6  H         -1.2440   -1.7218    0.2914 H       0  UNK0        0.0287
      7  H         -2.1261   -0.1962    0.1953 H       0  UNK0        0.0287
      8  C          0.0100    0.0130    0.2260 C.3     0  UNK0        0.0548
      9  O          0.0400    1.3180   -0.3350 O.3     0  UNK0       -0.3918
     10  H         -0.6330    1.8510    0.1010 H       0  UNK0        0.2098
     11  H          0.0310    0.0800    1.3290 H       0  UNK0        0.0593
     12  C          1.2760   -0.6910   -0.2410 C.3     0  UNK0       -0.0297
     13  H          1.2965   -0.6844   -1.3362 H       0  UNK0        0.0287
     14  H          2.1326   -0.0978    0.1010 H       0  UNK0        0.0287
     15  C          1.3819   -2.1178    0.2891 C.3     0  UNK0       -0.0629
     16  H          0.5490   -2.7297   -0.0731 H       0  UNK0        0.0231
     17  H          2.3126   -2.5932   -0.0315 H       0  UNK0        0.0231
     18  H          1.3497   -2.1155    1.3800 H       0  UNK0        0.0231
@<TRIPOS>BOND
     1    14    12    1
     2     6     5    1
     3     9    10    1
     4     9     8    1
     5     4     1    1
     6    12    13    1
     7    12     8    1
     8    12    15    1
     9     5     1    1
    10     5     8    1
    11     5     7    1
    12    17    15    1
    13    18    15    1
    14     2     1    1
    15     1     3    1
    16     8    11    1
    17    15    16    1
