@<TRIPOS>MOLECULE
/home/jramos/PycharmProjects/GeCos/examples/06-PVA_trueno_openbabel_mp2/PVA_C5.pdb
 18 17 0 0 0
SMALL
GASTEIGER

@<TRIPOS>ATOM
      1  C         -2.1820    1.1410    0.0000 C.3     0  UNK0       -0.0629
      2  H         -1.8250    0.1320    0.0000 H       0  UNK0        0.0231
      3  H         -1.8250    1.6460   -0.8740 H       0  UNK0        0.0231
      4  H         -3.2520    1.1410    0.0000 H       0  UNK0        0.0231
      5  C         -1.6680    1.8670    1.2570 C.3     0  UNK0       -0.0297
      6  H         -2.0250    2.8760    1.2570 H       0  UNK0        0.0287
      7  H         -2.0250    1.3630    2.1310 H       0  UNK0        0.0287
      8  C         -0.1280    1.8670    1.2570 C.3     0  UNK0        0.0548
      9  H          0.2280    2.3700    0.3830 H       0  UNK0        0.0593
     10  C          0.3850    2.5960    2.5130 C.3     0  UNK0       -0.0297
     11  H          0.0280    2.0930    3.3880 H       0  UNK0        0.0287
     12  H          0.0290    3.6050    2.5110 H       0  UNK0        0.0287
     13  C          1.9250    2.5950    2.5140 C.3     0  UNK0       -0.0629
     14  H          2.2820    3.0970    1.6390 H       0  UNK0        0.0231
     15  H          2.2820    3.1010    3.3860 H       0  UNK0        0.0231
     16  H          2.2810    1.5860    2.5160 H       0  UNK0        0.0231
     17  O          0.3480    0.5190    1.2600 O.3     0  UNK0       -0.3918
     18  H          1.3080    0.5190    1.2600 H       0  UNK0        0.2098
@<TRIPOS>BOND
     1     3     1    1
     2     2     1    1
     3     4     1    1
     4     1     5    1
     5     9     8    1
     6     5     6    1
     7     5     8    1
     8     5     7    1
     9     8    17    1
    10     8    10    1
    11    18    17    1
    12    14    13    1
    13    12    10    1
    14    10    13    1
    15    10    11    1
    16    13    16    1
    17    13    15    1
@<TRIPOS>MOLECULE
/home/jramos/PycharmProjects/GeCos/examples/06-PVA_trueno_openbabel_mp2/PVA_C5.pdb
 18 17 0 0 0
SMALL
GASTEIGER

@<TRIPOS>ATOM
      1  C         -2.1820    1.1384    0.0015 C.3     0  UNK0       -0.0629
      2  H         -1.8250    0.1294    0.0036 H       0  UNK0        0.0231
      3  H         -1.8250    1.6416   -0.8735 H       0  UNK0        0.0231
      4  H         -3.2520    1.1384    0.0015 H       0  UNK0        0.0231
      5  C         -1.6680    1.8670    1.2570 C.3     0  UNK0       -0.0297
      6  H         -2.0250    2.8760    1.2549 H       0  UNK0        0.0287
      7  H         -2.0250    1.3648    2.1320 H       0  UNK0        0.0287
      8  C         -0.1280    1.8670    1.2570 C.3     0  UNK0        0.0548
      9  H          0.2280    2.3700    0.3830 H       0  UNK0        0.0593
     10  C          0.3850    2.5960    2.5130 C.3     0  UNK0       -0.0297
     11  H          0.0292    2.0922    3.3880 H       0  UNK0        0.0287
     12  H          0.0278    3.6046    2.5117 H       0  UNK0        0.0287
     13  C          1.9250    2.5968    2.5130 C.3     0  UNK0       -0.0629
     14  H          2.2808    3.0996    1.6380 H       0  UNK0        0.0231
     15  H          2.2820    3.1028    3.3850 H       0  UNK0        0.0231
     16  H          2.2822    1.5882    2.5143 H       0  UNK0        0.0231
     17  O          0.3480    0.5190    1.2600 O.3     0  UNK0       -0.3918
     18  H          1.3080    0.5190    1.2600 H       0  UNK0        0.2098
@<TRIPOS>BOND
     1     3     1    1
     2     2     1    1
     3     4     1    1
     4     1     5    1
     5     9     8    1
     6     5     6    1
     7     5     8    1
     8     5     7    1
     9     8    17    1
    10     8    10    1
    11    18    17    1
    12    14    13    1
    13    12    10    1
    14    10    13    1
    15    10    11    1
    16    13    16    1
    17    13    15    1
@<TRIPOS>MOLECULE
/home/jramos/PycharmProjects/GeCos/examples/06-PVA_trueno_openbabel_mp2/PVA_C5.pdb
 18 17 0 0 0
SMALL
GASTEIGER

@<TRIPOS>ATOM
      1  C         -2.1820    1.1384    0.0015 C.3     0  UNK0       -0.0629
      2  H         -1.8250    0.1294    0.0036 H       0  UNK0        0.0231
      3  H         -1.8250    1.6416   -0.8735 H       0  UNK0        0.0231
      4  H         -3.2520    1.1384    0.0015 H       0  UNK0        0.0231
      5  C         -1.6680    1.8670    1.2570 C.3     0  UNK0       -0.0297
      6  H         -2.0250    2.8760    1.2549 H       0  UNK0        0.0287
      7  H         -2.0250    1.3648    2.1320 H       0  UNK0        0.0287
      8  C         -0.1280    1.8670    1.2570 C.3     0  UNK0        0.0548
      9  H          0.2280    2.3700    0.3830 H       0  UNK0        0.0593
     10  C          0.3850    2.5960    2.5130 C.3     0  UNK0       -0.0297
     11  H          1.4556    2.5974    2.5122 H       0  UNK0        0.0287
     12  H          0.0293    2.0936    3.3881 H       0  UNK0        0.0287
     13  C         -0.1291    4.0476    2.5098 C.3     0  UNK0       -0.0629
     14  H         -1.1992    4.0464    2.5098 H       0  UNK0        0.0231
     15  H          0.2268    4.5546    3.3817 H       0  UNK0        0.0231
     16  H          0.2266    4.5501    1.6347 H       0  UNK0        0.0231
     17  O          0.3480    0.5190    1.2600 O.3     0  UNK0       -0.3918
     18  H          1.3080    0.5190    1.2600 H       0  UNK0        0.2098
@<TRIPOS>BOND
     1     3     1    1
     2     2     1    1
     3     4     1    1
     4     1     5    1
     5     9     8    1
     6     5     6    1
     7     5     8    1
     8     5     7    1
     9     8    17    1
    10     8    10    1
    11    18    17    1
    12    14    13    1
    13    12    10    1
    14    10    13    1
    15    10    11    1
    16    13    16    1
    17    13    15    1
@<TRIPOS>MOLECULE
/home/jramos/PycharmProjects/GeCos/examples/06-PVA_trueno_openbabel_mp2/PVA_C5.pdb
 18 17 0 0 0
SMALL
GASTEIGER

@<TRIPOS>ATOM
      1  C         -2.1820    1.1384    0.0015 C.3     0  UNK0       -0.0629
      2  H         -1.8250    0.1294    0.0036 H       0  UNK0        0.0231
      3  H         -1.8250    1.6416   -0.8735 H       0  UNK0        0.0231
      4  H         -3.2520    1.1384    0.0015 H       0  UNK0        0.0231
      5  C         -1.6680    1.8670    1.2570 C.3     0  UNK0       -0.0297
      6  H         -2.0250    2.8760    1.2549 H       0  UNK0        0.0287
      7  H         -2.0250    1.3648    2.1320 H       0  UNK0        0.0287
      8  C         -0.1280    1.8670    1.2570 C.3     0  UNK0        0.0548
      9  H          0.2280    2.3700    0.3830 H       0  UNK0        0.0593
     10  C          0.3850    2.5960    2.5130 C.3     0  UNK0       -0.0297
     11  H          0.0266    3.6048    2.5111 H       0  UNK0        0.0287
     12  H          1.4550    2.5973    2.5135 H       0  UNK0        0.0287
     13  C         -0.1280    1.8724    3.7719 C.3     0  UNK0       -0.0629
     14  H          0.2295    0.8638    3.7735 H       0  UNK0        0.0231
     15  H          0.2278    2.3782    4.6446 H       0  UNK0        0.0231
     16  H         -1.1980    1.8711    3.7715 H       0  UNK0        0.0231
     17  O          0.3480    0.5190    1.2600 O.3     0  UNK0       -0.3918
     18  H          1.3080    0.5190    1.2600 H       0  UNK0        0.2098
@<TRIPOS>BOND
     1     3     1    1
     2     2     1    1
     3     4     1    1
     4     1     5    1
     5     9     8    1
     6     5     6    1
     7     5     8    1
     8     5     7    1
     9     8    17    1
    10     8    10    1
    11    18    17    1
    12    14    13    1
    13    12    10    1
    14    10    13    1
    15    10    11    1
    16    13    16    1
    17    13    15    1
@<TRIPOS>MOLECULE
/home/jramos/PycharmProjects/GeCos/examples/06-PVA_trueno_openbabel_mp2/PVA_C5.pdb
 18 17 0 0 0
SMALL
GASTEIGER

@<TRIPOS>ATOM
      1  C         -2.1820    1.1440    2.5157 C.3     0  UNK0       -0.0629
      2  H         -1.8250    1.6503    3.3885 H       0  UNK0        0.0231
      3  H         -1.8250    0.1346    2.5175 H       0  UNK0        0.0231
      4  H         -3.2520    1.1440    2.5157 H       0  UNK0        0.0231
      5  C         -1.6680    1.8670    1.2570 C.3     0  UNK0       -0.0297
      6  H         -2.0250    1.3607    0.3842 H       0  UNK0        0.0287
      7  H         -2.0250    2.8759    1.2544 H       0  UNK0        0.0287
      8  C         -0.1280    1.8670    1.2570 C.3     0  UNK0        0.0548
      9  H          0.2280    2.3700    0.3830 H       0  UNK0        0.0593
     10  C          0.3850    2.5960    2.5130 C.3     0  UNK0       -0.0297
     11  H          0.0292    2.0922    3.3880 H       0  UNK0        0.0287
     12  H          0.0278    3.6046    2.5117 H       0  UNK0        0.0287
     13  C          1.9250    2.5968    2.5130 C.3     0  UNK0       -0.0629
     14  H          2.2808    3.0996    1.6380 H       0  UNK0        0.0231
     15  H          2.2820    3.1028    3.3850 H       0  UNK0        0.0231
     16  H          2.2822    1.5882    2.5143 H       0  UNK0        0.0231
     17  O          0.3480    0.5190    1.2600 O.3     0  UNK0       -0.3918
     18  H          1.3080    0.5190    1.2600 H       0  UNK0        0.2098
@<TRIPOS>BOND
     1     3     1    1
     2     2     1    1
     3     4     1    1
     4     1     5    1
     5     9     8    1
     6     5     6    1
     7     5     8    1
     8     5     7    1
     9     8    17    1
    10     8    10    1
    11    18    17    1
    12    14    13    1
    13    12    10    1
    14    10    13    1
    15    10    11    1
    16    13    16    1
    17    13    15    1
@<TRIPOS>MOLECULE
/home/jramos/PycharmProjects/GeCos/examples/06-PVA_trueno_openbabel_mp2/PVA_C5.pdb
 18 17 0 0 0
SMALL
GASTEIGER

@<TRIPOS>ATOM
      1  C         -2.1820    1.1440    2.5157 C.3     0  UNK0       -0.0629
      2  H         -1.8250    1.6503    3.3885 H       0  UNK0        0.0231
      3  H         -1.8250    0.1346    2.5175 H       0  UNK0        0.0231
      4  H         -3.2520    1.1440    2.5157 H       0  UNK0        0.0231
      5  C         -1.6680    1.8670    1.2570 C.3     0  UNK0       -0.0297
      6  H         -2.0250    1.3607    0.3842 H       0  UNK0        0.0287
      7  H         -2.0250    2.8759    1.2544 H       0  UNK0        0.0287
      8  C         -0.1280    1.8670    1.2570 C.3     0  UNK0        0.0548
      9  H          0.2280    2.3700    0.3830 H       0  UNK0        0.0593
     10  C          0.3850    2.5960    2.5130 C.3     0  UNK0       -0.0297
     11  H          1.4556    2.5974    2.5122 H       0  UNK0        0.0287
     12  H          0.0293    2.0936    3.3881 H       0  UNK0        0.0287
     13  C         -0.1291    4.0476    2.5098 C.3     0  UNK0       -0.0629
     14  H         -1.1992    4.0464    2.5098 H       0  UNK0        0.0231
     15  H          0.2268    4.5546    3.3817 H       0  UNK0        0.0231
     16  H          0.2266    4.5501    1.6347 H       0  UNK0        0.0231
     17  O          0.3480    0.5190    1.2600 O.3     0  UNK0       -0.3918
     18  H          1.3080    0.5190    1.2600 H       0  UNK0        0.2098
@<TRIPOS>BOND
     1     3     1    1
     2     2     1    1
     3     4     1    1
     4     1     5    1
     5     9     8    1
     6     5     6    1
     7     5     8    1
     8     5     7    1
     9     8    17    1
    10     8    10    1
    11    18    17    1
    12    14    13    1
    13    12    10    1
    14    10    13    1
    15    10    11    1
    16    13    16    1
    17    13    15    1
