@<TRIPOS>MOLECULE
/home/jramos/PycharmProjects/GeCos/examples/07-EVA_trueno_openbabel_mp2/EVA_C5.pdb
 23 22 0 0 0
SMALL
GASTEIGER

@<TRIPOS>ATOM
      1  C         -2.1920    1.0870    0.0460 C.3     0  UNK0       -0.0619
      2  H         -1.8330    0.0800    0.0810 H       0  UNK0        0.0231
      3  H         -1.8420    1.5590   -0.8480 H       0  UNK0        0.0231
      4  H         -3.2620    1.0850    0.0530 H       0  UNK0        0.0231
      5  C         -1.6720    1.8600    1.2720 C.3     0  UNK0       -0.0185
      6  H         -2.0310    2.8670    1.2380 H       0  UNK0        0.0298
      7  H         -2.0220    1.3870    2.1670 H       0  UNK0        0.0298
      8  C         -0.1320    1.8630    1.2620 C.3     0  UNK0        0.1026
      9  H          0.2180    2.3360    0.3690 H       0  UNK0        0.0733
     10  C          0.3880    2.6360    2.4890 C.3     0  UNK0       -0.0185
     11  H         -0.3290    3.3780    2.7730 H       0  UNK0        0.0298
     12  H          1.3150    3.1110    2.2450 H       0  UNK0        0.0298
     13  C          0.6040    1.6580    3.6590 C.3     0  UNK0       -0.0619
     14  H          1.3210    0.9160    3.3750 H       0  UNK0        0.0231
     15  H          0.9650    2.1950    4.5110 H       0  UNK0        0.0231
     16  H         -0.3240    1.1830    3.9030 H       0  UNK0        0.0231
     17  O          0.3480    0.5170    1.3090 O.3     0  UNK0       -0.4616
     18  C          1.7780    0.5200    1.3000 C.2     0  UNK0        0.3042
     19  O          2.4000    1.3300    0.5650 O.2     0  UNK0       -0.2512
     20  C          2.5560   -0.4680    2.1890 C.3     0  UNK0        0.0332
     21  H          2.7390   -0.0200    3.1440 H       0  UNK0        0.0342
     22  H          1.9800   -1.3600    2.3190 H       0  UNK0        0.0342
     23  H          3.4880   -0.7090    1.7230 H       0  UNK0        0.0342
@<TRIPOS>BOND
     1     3     1    1
     2     1     4    1
     3     1     2    1
     4     1     5    1
     5     9     8    1
     6    19    18    2
     7     6     5    1
     8     8     5    1
     9     8    17    1
    10     8    10    1
    11     5     7    1
    12    18    17    1
    13    18    20    1
    14    23    20    1
    15    20    22    1
    16    20    21    1
    17    12    10    1
    18    10    11    1
    19    10    13    1
    20    14    13    1
    21    13    16    1
    22    13    15    1
@<TRIPOS>MOLECULE
/home/jramos/PycharmProjects/GeCos/examples/07-EVA_trueno_openbabel_mp2/EVA_C5.pdb
 23 22 0 0 0
SMALL
GASTEIGER

@<TRIPOS>ATOM
      1  C         -2.1920    1.0869    0.0460 C.3     0  UNK0       -0.0619
      2  H         -1.8330    0.0799    0.0811 H       0  UNK0        0.0231
      3  H         -1.8420    1.5589   -0.8480 H       0  UNK0        0.0231
      4  H         -3.2620    1.0849    0.0530 H       0  UNK0        0.0231
      5  C         -1.6720    1.8600    1.2720 C.3     0  UNK0       -0.0185
      6  H         -2.0310    2.8670    1.2379 H       0  UNK0        0.0298
      7  H         -2.0220    1.3870    2.1670 H       0  UNK0        0.0298
      8  C         -0.1320    1.8630    1.2620 C.3     0  UNK0        0.1026
      9  H          0.2180    2.3360    0.3690 H       0  UNK0        0.0733
     10  C          0.3880    2.6360    2.4890 C.3     0  UNK0       -0.0185
     11  H          0.0283    3.6433    2.4544 H       0  UNK0        0.0298
     12  H          1.4578    2.6390    2.4818 H       0  UNK0        0.0298
     13  C         -0.1154    1.9562    3.7760 C.3     0  UNK0       -0.0619
     14  H          0.2443    0.9488    3.8106 H       0  UNK0        0.0231
     15  H          0.2457    2.4932    4.6280 H       0  UNK0        0.0231
     16  H         -1.1860    1.9535    3.7829 H       0  UNK0        0.0231
     17  O          0.3480    0.5170    1.3090 O.3     0  UNK0       -0.4616
     18  C          1.7780    0.5200    1.2993 C.2     0  UNK0        0.3042
     19  O          2.4004    1.4444    0.7152 O.2     0  UNK0       -0.2512
     20  C          2.5554   -0.6080    2.0029 C.3     0  UNK0        0.0332
     21  H          2.7397   -0.3324    3.0209 H       0  UNK0        0.0342
     22  H          1.9785   -1.5084    1.9770 H       0  UNK0        0.0342
     23  H          3.4868   -0.7656    1.5013 H       0  UNK0        0.0342
@<TRIPOS>BOND
     1     3     1    1
     2     1     4    1
     3     1     2    1
     4     1     5    1
     5     9     8    1
     6    19    18    2
     7     6     5    1
     8     8     5    1
     9     8    17    1
    10     8    10    1
    11     5     7    1
    12    18    17    1
    13    18    20    1
    14    23    20    1
    15    20    22    1
    16    20    21    1
    17    12    10    1
    18    10    11    1
    19    10    13    1
    20    14    13    1
    21    13    16    1
    22    13    15    1
@<TRIPOS>MOLECULE
/home/jramos/PycharmProjects/GeCos/examples/07-EVA_trueno_openbabel_mp2/EVA_C5.pdb
 23 22 0 0 0
SMALL
GASTEIGER

@<TRIPOS>ATOM
      1  C         -2.1759    1.1804    2.5586 C.3     0  UNK0       -0.0619
      2  H         -1.8146    1.7173    3.4103 H       0  UNK0        0.0231
      3  H         -1.8169    0.1732    2.5940 H       0  UNK0        0.0231
      4  H         -3.2459    1.1783    2.5654 H       0  UNK0        0.0231
      5  C         -1.6720    1.8600    1.2720 C.3     0  UNK0       -0.0185
      6  H         -2.0333    1.3239    0.4198 H       0  UNK0        0.0298
      7  H         -2.0309    2.8686    1.2370 H       0  UNK0        0.0298
      8  C         -0.1320    1.8630    1.2620 C.3     0  UNK0        0.1026
      9  H          0.2180    2.3360    0.3690 H       0  UNK0        0.0733
     10  C          0.3880    2.6360    2.4890 C.3     0  UNK0       -0.0185
     11  H          0.0385    2.1626    3.3829 H       0  UNK0        0.0298
     12  H          0.0286    3.6431    2.4550 H       0  UNK0        0.0298
     13  C          1.9281    2.6394    2.4796 C.3     0  UNK0       -0.0619
     14  H          2.2776    3.1127    1.5857 H       0  UNK0        0.0231
     15  H          2.2890    3.1761    3.3318 H       0  UNK0        0.0231
     16  H          2.2874    1.6314    2.5138 H       0  UNK0        0.0231
     17  O          0.3480    0.5170    1.3090 O.3     0  UNK0       -0.4616
     18  C         -0.1346   -0.2015    0.1707 C.2     0  UNK0        0.3042
     19  O         -0.3528    0.4058   -0.9095 O.2     0  UNK0       -0.2512
     20  C         -0.3877   -1.7176    0.2672 C.3     0  UNK0        0.0332
     21  H          0.5042   -2.2455   -0.0013 H       0  UNK0        0.0342
     22  H         -0.6623   -1.9699    1.2698 H       0  UNK0        0.0342
     23  H         -1.1784   -1.9901   -0.3994 H       0  UNK0        0.0342
@<TRIPOS>BOND
     1     3     1    1
     2     1     4    1
     3     1     2    1
     4     1     5    1
     5     9     8    1
     6    19    18    2
     7     6     5    1
     8     8     5    1
     9     8    17    1
    10     8    10    1
    11     5     7    1
    12    18    17    1
    13    18    20    1
    14    23    20    1
    15    20    22    1
    16    20    21    1
    17    12    10    1
    18    10    11    1
    19    10    13    1
    20    14    13    1
    21    13    16    1
    22    13    15    1
@<TRIPOS>MOLECULE
/home/jramos/PycharmProjects/GeCos/examples/07-EVA_trueno_openbabel_mp2/EVA_C5.pdb
 23 22 0 0 0
SMALL
GASTEIGER

@<TRIPOS>ATOM
      1  C         -2.1887    3.3096    1.2214 C.3     0  UNK0       -0.0619
      2  H         -1.8386    3.7818    0.3277 H       0  UNK0        0.0231
      3  H         -1.8275    3.8470    2.0730 H       0  UNK0        0.0231
      4  H         -3.2587    3.3075    1.2284 H       0  UNK0        0.0231
      5  C         -1.6720    1.8600    1.2720 C.3     0  UNK0       -0.0185
      6  H         -2.0221    1.3870    2.1652 H       0  UNK0        0.0298
      7  H         -2.0332    1.3223    0.4190 H       0  UNK0        0.0298
      8  C         -0.1320    1.8630    1.2620 C.3     0  UNK0        0.1026
      9  H          0.2180    2.3360    0.3690 H       0  UNK0        0.0733
     10  C          0.3880    2.6360    2.4890 C.3     0  UNK0       -0.0185
     11  H          0.0283    3.6433    2.4544 H       0  UNK0        0.0298
     12  H          1.4578    2.6390    2.4818 H       0  UNK0        0.0298
     13  C         -0.1154    1.9562    3.7760 C.3     0  UNK0       -0.0619
     14  H          0.2443    0.9488    3.8106 H       0  UNK0        0.0231
     15  H          0.2457    2.4932    4.6280 H       0  UNK0        0.0231
     16  H         -1.1860    1.9535    3.7829 H       0  UNK0        0.0231
     17  O          0.3480    0.5170    1.3090 O.3     0  UNK0       -0.4616
     18  C         -0.1346   -0.2015    0.1707 C.2     0  UNK0        0.3042
     19  O          0.1611    0.1867   -0.9891 O.2     0  UNK0       -0.2512
     20  C         -1.0163   -1.4493    0.3644 C.3     0  UNK0        0.0332
     21  H         -0.3946   -2.3187    0.4260 H       0  UNK0        0.0342
     22  H         -1.5802   -1.3504    1.2680 H       0  UNK0        0.0342
     23  H         -1.6843   -1.5460   -0.4652 H       0  UNK0        0.0342
@<TRIPOS>BOND
     1     3     1    1
     2     1     4    1
     3     1     2    1
     4     1     5    1
     5     9     8    1
     6    19    18    2
     7     6     5    1
     8     8     5    1
     9     8    17    1
    10     8    10    1
    11     5     7    1
    12    18    17    1
    13    18    20    1
    14    23    20    1
    15    20    22    1
    16    20    21    1
    17    12    10    1
    18    10    11    1
    19    10    13    1
    20    14    13    1
    21    13    16    1
    22    13    15    1
@<TRIPOS>MOLECULE
/home/jramos/PycharmProjects/GeCos/examples/07-EVA_trueno_openbabel_mp2/EVA_C5.pdb
 23 22 0 0 0
SMALL
GASTEIGER

@<TRIPOS>ATOM
      1  C         -2.1759    1.1804    2.5586 C.3     0  UNK0       -0.0619
      2  H         -1.8146    1.7173    3.4103 H       0  UNK0        0.0231
      3  H         -1.8169    0.1732    2.5940 H       0  UNK0        0.0231
      4  H         -3.2459    1.1783    2.5654 H       0  UNK0        0.0231
      5  C         -1.6720    1.8600    1.2720 C.3     0  UNK0       -0.0185
      6  H         -2.0333    1.3239    0.4198 H       0  UNK0        0.0298
      7  H         -2.0309    2.8686    1.2370 H       0  UNK0        0.0298
      8  C         -0.1320    1.8630    1.2620 C.3     0  UNK0        0.1026
      9  H          0.2180    2.3360    0.3690 H       0  UNK0        0.0733
     10  C          0.3880    2.6360    2.4890 C.3     0  UNK0       -0.0185
     11  H          1.4582    2.6386    2.4814 H       0  UNK0        0.0298
     12  H          0.0390    2.1631    3.3829 H       0  UNK0        0.0298
     13  C         -0.1282    4.0862    2.4396 C.3     0  UNK0       -0.0619
     14  H         -1.1984    4.0836    2.4471 H       0  UNK0        0.0231
     15  H          0.2331    4.6229    3.2916 H       0  UNK0        0.0231
     16  H          0.2214    4.5591    1.5449 H       0  UNK0        0.0231
     17  O          0.3480    0.5170    1.3090 O.3     0  UNK0       -0.4616
     18  C          1.7780    0.5200    1.2993 C.2     0  UNK0        0.3042
     19  O          2.3987    1.0308    0.3313 O.2     0  UNK0       -0.2512
     20  C          2.5576   -0.1022    2.4727 C.3     0  UNK0        0.0332
     21  H          2.7390    0.6461    3.2166 H       0  UNK0        0.0342
     22  H          1.9834   -0.8971    2.9004 H       0  UNK0        0.0342
     23  H          3.4904   -0.4860    2.1173 H       0  UNK0        0.0342
@<TRIPOS>BOND
     1     3     1    1
     2     1     4    1
     3     1     2    1
     4     1     5    1
     5     9     8    1
     6    19    18    2
     7     6     5    1
     8     8     5    1
     9     8    17    1
    10     8    10    1
    11     5     7    1
    12    18    17    1
    13    18    20    1
    14    23    20    1
    15    20    22    1
    16    20    21    1
    17    12    10    1
    18    10    11    1
    19    10    13    1
    20    14    13    1
    21    13    16    1
    22    13    15    1
@<TRIPOS>MOLECULE
/home/jramos/PycharmProjects/GeCos/examples/07-EVA_trueno_openbabel_mp2/EVA_C5.pdb
 23 22 0 0 0
SMALL
GASTEIGER

@<TRIPOS>ATOM
      1  C         -2.1887    3.3096    1.2214 C.3     0  UNK0       -0.0619
      2  H         -1.8386    3.7818    0.3277 H       0  UNK0        0.0231
      3  H         -1.8275    3.8470    2.0730 H       0  UNK0        0.0231
      4  H         -3.2587    3.3075    1.2284 H       0  UNK0        0.0231
      5  C         -1.6720    1.8600    1.2720 C.3     0  UNK0       -0.0185
      6  H         -2.0221    1.3870    2.1652 H       0  UNK0        0.0298
      7  H         -2.0332    1.3223    0.4190 H       0  UNK0        0.0298
      8  C         -0.1320    1.8630    1.2620 C.3     0  UNK0        0.1026
      9  H          0.2180    2.3360    0.3690 H       0  UNK0        0.0733
     10  C          0.3880    2.6360    2.4890 C.3     0  UNK0       -0.0185
     11  H          0.0283    3.6433    2.4544 H       0  UNK0        0.0298
     12  H          1.4578    2.6390    2.4818 H       0  UNK0        0.0298
     13  C         -0.1154    1.9562    3.7760 C.3     0  UNK0       -0.0619
     14  H          0.2443    0.9488    3.8106 H       0  UNK0        0.0231
     15  H          0.2457    2.4932    4.6280 H       0  UNK0        0.0231
     16  H         -1.1860    1.9535    3.7829 H       0  UNK0        0.0231
     17  O          0.3480    0.5170    1.3090 O.3     0  UNK0       -0.4616
     18  C          1.7780    0.5200    1.2993 C.2     0  UNK0        0.3042
     19  O          2.3987    1.0308    0.3313 O.2     0  UNK0       -0.2512
     20  C          2.5576   -0.1022    2.4727 C.3     0  UNK0        0.0332
     21  H          2.7390    0.6461    3.2166 H       0  UNK0        0.0342
     22  H          1.9834   -0.8971    2.9004 H       0  UNK0        0.0342
     23  H          3.4904   -0.4860    2.1173 H       0  UNK0        0.0342
@<TRIPOS>BOND
     1     3     1    1
     2     1     4    1
     3     1     2    1
     4     1     5    1
     5     9     8    1
     6    19    18    2
     7     6     5    1
     8     8     5    1
     9     8    17    1
    10     8    10    1
    11     5     7    1
    12    18    17    1
    13    18    20    1
    14    23    20    1
    15    20    22    1
    16    20    21    1
    17    12    10    1
    18    10    11    1
    19    10    13    1
    20    14    13    1
    21    13    16    1
    22    13    15    1
@<TRIPOS>MOLECULE
/home/jramos/PycharmProjects/GeCos/examples/07-EVA_trueno_openbabel_mp2/EVA_C5.pdb
 23 22 0 0 0
SMALL
GASTEIGER

@<TRIPOS>ATOM
      1  C         -2.1887    3.3096    1.2214 C.3     0  UNK0       -0.0619
      2  H         -1.8386    3.7818    0.3277 H       0  UNK0        0.0231
      3  H         -1.8275    3.8470    2.0730 H       0  UNK0        0.0231
      4  H         -3.2587    3.3075    1.2284 H       0  UNK0        0.0231
      5  C         -1.6720    1.8600    1.2720 C.3     0  UNK0       -0.0185
      6  H         -2.0221    1.3870    2.1652 H       0  UNK0        0.0298
      7  H         -2.0332    1.3223    0.4190 H       0  UNK0        0.0298
      8  C         -0.1320    1.8630    1.2620 C.3     0  UNK0        0.1026
      9  H          0.2180    2.3360    0.3690 H       0  UNK0        0.0733
     10  C          0.3880    2.6360    2.4890 C.3     0  UNK0       -0.0185
     11  H          0.0385    2.1626    3.3829 H       0  UNK0        0.0298
     12  H          0.0286    3.6431    2.4550 H       0  UNK0        0.0298
     13  C          1.9281    2.6394    2.4796 C.3     0  UNK0       -0.0619
     14  H          2.2776    3.1127    1.5857 H       0  UNK0        0.0231
     15  H          2.2890    3.1761    3.3318 H       0  UNK0        0.0231
     16  H          2.2874    1.6314    2.5138 H       0  UNK0        0.0231
     17  O          0.3480    0.5170    1.3090 O.3     0  UNK0       -0.4616
     18  C         -0.4705   -0.3105    0.4782 C.2     0  UNK0        0.3042
     19  O         -0.5678   -0.0649   -0.7520 O.2     0  UNK0       -0.2512
     20  C         -1.2327   -1.5012    1.0891 C.3     0  UNK0        0.0332
     21  H         -0.6176   -2.3765    1.0487 H       0  UNK0        0.0342
     22  H         -1.4757   -1.2837    2.1079 H       0  UNK0        0.0342
     23  H         -2.1319   -1.6706    0.5354 H       0  UNK0        0.0342
@<TRIPOS>BOND
     1     3     1    1
     2     1     4    1
     3     1     2    1
     4     1     5    1
     5     9     8    1
     6    19    18    2
     7     6     5    1
     8     8     5    1
     9     8    17    1
    10     8    10    1
    11     5     7    1
    12    18    17    1
    13    18    20    1
    14    23    20    1
    15    20    22    1
    16    20    21    1
    17    12    10    1
    18    10    11    1
    19    10    13    1
    20    14    13    1
    21    13    16    1
    22    13    15    1
@<TRIPOS>MOLECULE
/home/jramos/PycharmProjects/GeCos/examples/07-EVA_trueno_openbabel_mp2/EVA_C5.pdb
 23 22 0 0 0
SMALL
GASTEIGER

@<TRIPOS>ATOM
      1  C         -2.1920    1.0869    0.0460 C.3     0  UNK0       -0.0619
      2  H         -1.8330    0.0799    0.0811 H       0  UNK0        0.0231
      3  H         -1.8420    1.5589   -0.8480 H       0  UNK0        0.0231
      4  H         -3.2620    1.0849    0.0530 H       0  UNK0        0.0231
      5  C         -1.6720    1.8600    1.2720 C.3     0  UNK0       -0.0185
      6  H         -2.0310    2.8670    1.2379 H       0  UNK0        0.0298
      7  H         -2.0220    1.3870    2.1670 H       0  UNK0        0.0298
      8  C         -0.1320    1.8630    1.2620 C.3     0  UNK0        0.1026
      9  H          0.2180    2.3360    0.3690 H       0  UNK0        0.0733
     10  C          0.3880    2.6360    2.4890 C.3     0  UNK0       -0.0185
     11  H          1.4582    2.6386    2.4814 H       0  UNK0        0.0298
     12  H          0.0390    2.1631    3.3829 H       0  UNK0        0.0298
     13  C         -0.1282    4.0862    2.4396 C.3     0  UNK0       -0.0619
     14  H         -1.1984    4.0836    2.4471 H       0  UNK0        0.0231
     15  H          0.2331    4.6229    3.2916 H       0  UNK0        0.0231
     16  H          0.2214    4.5591    1.5449 H       0  UNK0        0.0231
     17  O          0.3480    0.5170    1.3090 O.3     0  UNK0       -0.4616
     18  C          1.7045    0.5099    1.7616 C.2     0  UNK0        0.3042
     19  O          2.5875    1.1253    1.1099 O.2     0  UNK0       -0.2512
     20  C          2.0842   -0.2510    3.0456 C.3     0  UNK0        0.0332
     21  H          1.9942    0.4040    3.8877 H       0  UNK0        0.0342
     22  H          1.4275   -1.0858    3.1724 H       0  UNK0        0.0342
     23  H          3.0929   -0.5980    2.9691 H       0  UNK0        0.0342
@<TRIPOS>BOND
     1     3     1    1
     2     1     4    1
     3     1     2    1
     4     1     5    1
     5     9     8    1
     6    19    18    2
     7     6     5    1
     8     8     5    1
     9     8    17    1
    10     8    10    1
    11     5     7    1
    12    18    17    1
    13    18    20    1
    14    23    20    1
    15    20    22    1
    16    20    21    1
    17    12    10    1
    18    10    11    1
    19    10    13    1
    20    14    13    1
    21    13    16    1
    22    13    15    1
@<TRIPOS>MOLECULE
/home/jramos/PycharmProjects/GeCos/examples/07-EVA_trueno_openbabel_mp2/EVA_C5.pdb
 23 22 0 0 0
SMALL
GASTEIGER

@<TRIPOS>ATOM
      1  C         -2.1759    1.1804    2.5586 C.3     0  UNK0       -0.0619
      2  H         -1.8146    1.7173    3.4103 H       0  UNK0        0.0231
      3  H         -1.8169    0.1732    2.5940 H       0  UNK0        0.0231
      4  H         -3.2459    1.1783    2.5654 H       0  UNK0        0.0231
      5  C         -1.6720    1.8600    1.2720 C.3     0  UNK0       -0.0185
      6  H         -2.0333    1.3239    0.4198 H       0  UNK0        0.0298
      7  H         -2.0309    2.8686    1.2370 H       0  UNK0        0.0298
      8  C         -0.1320    1.8630    1.2620 C.3     0  UNK0        0.1026
      9  H          0.2180    2.3360    0.3690 H       0  UNK0        0.0733
     10  C          0.3880    2.6360    2.4890 C.3     0  UNK0       -0.0185
     11  H          1.4582    2.6386    2.4814 H       0  UNK0        0.0298
     12  H          0.0390    2.1631    3.3829 H       0  UNK0        0.0298
     13  C         -0.1282    4.0862    2.4396 C.3     0  UNK0       -0.0619
     14  H         -1.1984    4.0836    2.4471 H       0  UNK0        0.0231
     15  H          0.2331    4.6229    3.2916 H       0  UNK0        0.0231
     16  H          0.2214    4.5591    1.5449 H       0  UNK0        0.0231
     17  O          0.3480    0.5170    1.3090 O.3     0  UNK0       -0.4616
     18  C         -0.1346   -0.2015    0.1707 C.2     0  UNK0        0.3042
     19  O          0.1611    0.1867   -0.9891 O.2     0  UNK0       -0.2512
     20  C         -1.0163   -1.4493    0.3644 C.3     0  UNK0        0.0332
     21  H         -0.3946   -2.3187    0.4260 H       0  UNK0        0.0342
     22  H         -1.5802   -1.3504    1.2680 H       0  UNK0        0.0342
     23  H         -1.6843   -1.5460   -0.4652 H       0  UNK0        0.0342
@<TRIPOS>BOND
     1     3     1    1
     2     1     4    1
     3     1     2    1
     4     1     5    1
     5     9     8    1
     6    19    18    2
     7     6     5    1
     8     8     5    1
     9     8    17    1
    10     8    10    1
    11     5     7    1
    12    18    17    1
    13    18    20    1
    14    23    20    1
    15    20    22    1
    16    20    21    1
    17    12    10    1
    18    10    11    1
    19    10    13    1
    20    14    13    1
    21    13    16    1
    22    13    15    1
@<TRIPOS>MOLECULE
/home/jramos/PycharmProjects/GeCos/examples/07-EVA_trueno_openbabel_mp2/EVA_C5.pdb
 23 22 0 0 0
SMALL
GASTEIGER

@<TRIPOS>ATOM
      1  C         -2.1759    1.1804    2.5586 C.3     0  UNK0       -0.0619
      2  H         -1.8146    1.7173    3.4103 H       0  UNK0        0.0231
      3  H         -1.8169    0.1732    2.5940 H       0  UNK0        0.0231
      4  H         -3.2459    1.1783    2.5654 H       0  UNK0        0.0231
      5  C         -1.6720    1.8600    1.2720 C.3     0  UNK0       -0.0185
      6  H         -2.0333    1.3239    0.4198 H       0  UNK0        0.0298
      7  H         -2.0309    2.8686    1.2370 H       0  UNK0        0.0298
      8  C         -0.1320    1.8630    1.2620 C.3     0  UNK0        0.1026
      9  H          0.2180    2.3360    0.3690 H       0  UNK0        0.0733
     10  C          0.3880    2.6360    2.4890 C.3     0  UNK0       -0.0185
     11  H          1.4582    2.6386    2.4814 H       0  UNK0        0.0298
     12  H          0.0390    2.1631    3.3829 H       0  UNK0        0.0298
     13  C         -0.1282    4.0862    2.4396 C.3     0  UNK0       -0.0619
     14  H         -1.1984    4.0836    2.4471 H       0  UNK0        0.0231
     15  H          0.2331    4.6229    3.2916 H       0  UNK0        0.0231
     16  H          0.2214    4.5591    1.5449 H       0  UNK0        0.0231
     17  O          0.3480    0.5170    1.3090 O.3     0  UNK0       -0.4616
     18  C          1.7780    0.5200    1.2993 C.2     0  UNK0        0.3042
     19  O          2.4037    1.6107    1.2544 O.2     0  UNK0       -0.2512
     20  C          2.5514   -0.8111    1.3432 C.3     0  UNK0        0.0332
     21  H          2.7368   -1.0820    2.3623 H       0  UNK0        0.0342
     22  H          1.9711   -1.5761    0.8717 H       0  UNK0        0.0342
     23  H          3.4821   -0.6997    0.8282 H       0  UNK0        0.0342
@<TRIPOS>BOND
     1     3     1    1
     2     1     4    1
     3     1     2    1
     4     1     5    1
     5     9     8    1
     6    19    18    2
     7     6     5    1
     8     8     5    1
     9     8    17    1
    10     8    10    1
    11     5     7    1
    12    18    17    1
    13    18    20    1
    14    23    20    1
    15    20    22    1
    16    20    21    1
    17    12    10    1
    18    10    11    1
    19    10    13    1
    20    14    13    1
    21    13    16    1
    22    13    15    1
@<TRIPOS>MOLECULE
/home/jramos/PycharmProjects/GeCos/examples/07-EVA_trueno_openbabel_mp2/EVA_C5.pdb
 23 22 0 0 0
SMALL
GASTEIGER

@<TRIPOS>ATOM
      1  C         -2.1887    3.3096    1.2214 C.3     0  UNK0       -0.0619
      2  H         -1.8386    3.7818    0.3277 H       0  UNK0        0.0231
      3  H         -1.8275    3.8470    2.0730 H       0  UNK0        0.0231
      4  H         -3.2587    3.3075    1.2284 H       0  UNK0        0.0231
      5  C         -1.6720    1.8600    1.2720 C.3     0  UNK0       -0.0185
      6  H         -2.0221    1.3870    2.1652 H       0  UNK0        0.0298
      7  H         -2.0332    1.3223    0.4190 H       0  UNK0        0.0298
      8  C         -0.1320    1.8630    1.2620 C.3     0  UNK0        0.1026
      9  H          0.2180    2.3360    0.3690 H       0  UNK0        0.0733
     10  C          0.3880    2.6360    2.4890 C.3     0  UNK0       -0.0185
     11  H          0.0283    3.6433    2.4544 H       0  UNK0        0.0298
     12  H          1.4578    2.6390    2.4818 H       0  UNK0        0.0298
     13  C         -0.1154    1.9562    3.7760 C.3     0  UNK0       -0.0619
     14  H          0.2443    0.9488    3.8106 H       0  UNK0        0.0231
     15  H          0.2457    2.4932    4.6280 H       0  UNK0        0.0231
     16  H         -1.1860    1.9535    3.7829 H       0  UNK0        0.0231
     17  O          0.3480    0.5170    1.3090 O.3     0  UNK0       -0.4616
     18  C          1.7780    0.5200    1.2993 C.2     0  UNK0        0.3042
     19  O          2.4037    1.6107    1.2544 O.2     0  UNK0       -0.2512
     20  C          2.5514   -0.8111    1.3432 C.3     0  UNK0        0.0332
     21  H          2.7368   -1.0820    2.3623 H       0  UNK0        0.0342
     22  H          1.9711   -1.5761    0.8717 H       0  UNK0        0.0342
     23  H          3.4821   -0.6997    0.8282 H       0  UNK0        0.0342
@<TRIPOS>BOND
     1     3     1    1
     2     1     4    1
     3     1     2    1
     4     1     5    1
     5     9     8    1
     6    19    18    2
     7     6     5    1
     8     8     5    1
     9     8    17    1
    10     8    10    1
    11     5     7    1
    12    18    17    1
    13    18    20    1
    14    23    20    1
    15    20    22    1
    16    20    21    1
    17    12    10    1
    18    10    11    1
    19    10    13    1
    20    14    13    1
    21    13    16    1
    22    13    15    1
@<TRIPOS>MOLECULE
/home/jramos/PycharmProjects/GeCos/examples/07-EVA_trueno_openbabel_mp2/EVA_C5.pdb
 23 22 0 0 0
SMALL
GASTEIGER

@<TRIPOS>ATOM
      1  C         -2.1759    1.1804    2.5586 C.3     0  UNK0       -0.0619
      2  H         -1.8146    1.7173    3.4103 H       0  UNK0        0.0231
      3  H         -1.8169    0.1732    2.5940 H       0  UNK0        0.0231
      4  H         -3.2459    1.1783    2.5654 H       0  UNK0        0.0231
      5  C         -1.6720    1.8600    1.2720 C.3     0  UNK0       -0.0185
      6  H         -2.0333    1.3239    0.4198 H       0  UNK0        0.0298
      7  H         -2.0309    2.8686    1.2370 H       0  UNK0        0.0298
      8  C         -0.1320    1.8630    1.2620 C.3     0  UNK0        0.1026
      9  H          0.2180    2.3360    0.3690 H       0  UNK0        0.0733
     10  C          0.3880    2.6360    2.4890 C.3     0  UNK0       -0.0185
     11  H          1.4582    2.6386    2.4814 H       0  UNK0        0.0298
     12  H          0.0390    2.1631    3.3829 H       0  UNK0        0.0298
     13  C         -0.1282    4.0862    2.4396 C.3     0  UNK0       -0.0619
     14  H         -1.1984    4.0836    2.4471 H       0  UNK0        0.0231
     15  H          0.2331    4.6229    3.2916 H       0  UNK0        0.0231
     16  H          0.2214    4.5591    1.5449 H       0  UNK0        0.0231
     17  O          0.3480    0.5170    1.3090 O.3     0  UNK0       -0.4616
     18  C         -0.1346   -0.2015    0.1707 C.2     0  UNK0        0.3042
     19  O         -0.8651    0.3776   -0.6745 O.2     0  UNK0       -0.2512
     20  C          0.2390   -1.6833   -0.0202 C.3     0  UNK0        0.0332
     21  H          1.1460   -1.7522   -0.5848 H       0  UNK0        0.0342
     22  H          0.3797   -2.1413    0.9363 H       0  UNK0        0.0342
     23  H         -0.5470   -2.1844   -0.5444 H       0  UNK0        0.0342
@<TRIPOS>BOND
     1     3     1    1
     2     1     4    1
     3     1     2    1
     4     1     5    1
     5     9     8    1
     6    19    18    2
     7     6     5    1
     8     8     5    1
     9     8    17    1
    10     8    10    1
    11     5     7    1
    12    18    17    1
    13    18    20    1
    14    23    20    1
    15    20    22    1
    16    20    21    1
    17    12    10    1
    18    10    11    1
    19    10    13    1
    20    14    13    1
    21    13    16    1
    22    13    15    1
@<TRIPOS>MOLECULE
/home/jramos/PycharmProjects/GeCos/examples/07-EVA_trueno_openbabel_mp2/EVA_C5.pdb
 23 22 0 0 0
SMALL
GASTEIGER

@<TRIPOS>ATOM
      1  C         -2.1887    3.3096    1.2214 C.3     0  UNK0       -0.0619
      2  H         -1.8386    3.7818    0.3277 H       0  UNK0        0.0231
      3  H         -1.8275    3.8470    2.0730 H       0  UNK0        0.0231
      4  H         -3.2587    3.3075    1.2284 H       0  UNK0        0.0231
      5  C         -1.6720    1.8600    1.2720 C.3     0  UNK0       -0.0185
      6  H         -2.0221    1.3870    2.1652 H       0  UNK0        0.0298
      7  H         -2.0332    1.3223    0.4190 H       0  UNK0        0.0298
      8  C         -0.1320    1.8630    1.2620 C.3     0  UNK0        0.1026
      9  H          0.2180    2.3360    0.3690 H       0  UNK0        0.0733
     10  C          0.3880    2.6360    2.4890 C.3     0  UNK0       -0.0185
     11  H          0.0385    2.1626    3.3829 H       0  UNK0        0.0298
     12  H          0.0286    3.6431    2.4550 H       0  UNK0        0.0298
     13  C          1.9281    2.6394    2.4796 C.3     0  UNK0       -0.0619
     14  H          2.2776    3.1127    1.5857 H       0  UNK0        0.0231
     15  H          2.2890    3.1761    3.3318 H       0  UNK0        0.0231
     16  H          2.2874    1.6314    2.5138 H       0  UNK0        0.0231
     17  O          0.3480    0.5170    1.3090 O.3     0  UNK0       -0.4616
     18  C         -0.1346   -0.2015    0.1707 C.2     0  UNK0        0.3042
     19  O         -1.3729   -0.3263   -0.0149 O.2     0  UNK0       -0.2512
     20  C          0.8607   -0.8225   -0.8270 C.3     0  UNK0        0.0332
     21  H          1.0859   -0.1114   -1.5950 H       0  UNK0        0.0342
     22  H          1.7606   -1.0888   -0.3136 H       0  UNK0        0.0342
     23  H          0.4273   -1.6965   -1.2655 H       0  UNK0        0.0342
@<TRIPOS>BOND
     1     3     1    1
     2     1     4    1
     3     1     2    1
     4     1     5    1
     5     9     8    1
     6    19    18    2
     7     6     5    1
     8     8     5    1
     9     8    17    1
    10     8    10    1
    11     5     7    1
    12    18    17    1
    13    18    20    1
    14    23    20    1
    15    20    22    1
    16    20    21    1
    17    12    10    1
    18    10    11    1
    19    10    13    1
    20    14    13    1
    21    13    16    1
    22    13    15    1
@<TRIPOS>MOLECULE
/home/jramos/PycharmProjects/GeCos/examples/07-EVA_trueno_openbabel_mp2/EVA_C5.pdb
 23 22 0 0 0
SMALL
GASTEIGER

@<TRIPOS>ATOM
      1  C         -2.1920    1.0869    0.0460 C.3     0  UNK0       -0.0619
      2  H         -1.8330    0.0799    0.0811 H       0  UNK0        0.0231
      3  H         -1.8420    1.5589   -0.8480 H       0  UNK0        0.0231
      4  H         -3.2620    1.0849    0.0530 H       0  UNK0        0.0231
      5  C         -1.6720    1.8600    1.2720 C.3     0  UNK0       -0.0185
      6  H         -2.0310    2.8670    1.2379 H       0  UNK0        0.0298
      7  H         -2.0220    1.3870    2.1670 H       0  UNK0        0.0298
      8  C         -0.1320    1.8630    1.2620 C.3     0  UNK0        0.1026
      9  H          0.2180    2.3360    0.3690 H       0  UNK0        0.0733
     10  C          0.3880    2.6360    2.4890 C.3     0  UNK0       -0.0185
     11  H          1.4582    2.6386    2.4814 H       0  UNK0        0.0298
     12  H          0.0390    2.1631    3.3829 H       0  UNK0        0.0298
     13  C         -0.1282    4.0862    2.4396 C.3     0  UNK0       -0.0619
     14  H         -1.1984    4.0836    2.4471 H       0  UNK0        0.0231
     15  H          0.2331    4.6229    3.2916 H       0  UNK0        0.0231
     16  H          0.2214    4.5591    1.5449 H       0  UNK0        0.0231
     17  O          0.3480    0.5170    1.3090 O.3     0  UNK0       -0.4616
     18  C          1.7780    0.5200    1.2993 C.2     0  UNK0        0.3042
     19  O          2.4113    1.1012    2.2182 O.2     0  UNK0       -0.2512
     20  C          2.5421   -0.1873    0.1646 C.3     0  UNK0        0.0332
     21  H          2.7240   -1.2062    0.4385 H       0  UNK0        0.0342
     22  H          1.9573   -0.1586   -0.7307 H       0  UNK0        0.0342
     23  H          3.4744    0.3099   -0.0013 H       0  UNK0        0.0342
@<TRIPOS>BOND
     1     3     1    1
     2     1     4    1
     3     1     2    1
     4     1     5    1
     5     9     8    1
     6    19    18    2
     7     6     5    1
     8     8     5    1
     9     8    17    1
    10     8    10    1
    11     5     7    1
    12    18    17    1
    13    18    20    1
    14    23    20    1
    15    20    22    1
    16    20    21    1
    17    12    10    1
    18    10    11    1
    19    10    13    1
    20    14    13    1
    21    13    16    1
    22    13    15    1
@<TRIPOS>MOLECULE
/home/jramos/PycharmProjects/GeCos/examples/07-EVA_trueno_openbabel_mp2/EVA_C5.pdb
 23 22 0 0 0
SMALL
GASTEIGER

@<TRIPOS>ATOM
      1  C         -2.1920    1.0869    0.0460 C.3     0  UNK0       -0.0619
      2  H         -1.8330    0.0799    0.0811 H       0  UNK0        0.0231
      3  H         -1.8420    1.5589   -0.8480 H       0  UNK0        0.0231
      4  H         -3.2620    1.0849    0.0530 H       0  UNK0        0.0231
      5  C         -1.6720    1.8600    1.2720 C.3     0  UNK0       -0.0185
      6  H         -2.0310    2.8670    1.2379 H       0  UNK0        0.0298
      7  H         -2.0220    1.3870    2.1670 H       0  UNK0        0.0298
      8  C         -0.1320    1.8630    1.2620 C.3     0  UNK0        0.1026
      9  H          0.2180    2.3360    0.3690 H       0  UNK0        0.0733
     10  C          0.3880    2.6360    2.4890 C.3     0  UNK0       -0.0185
     11  H          0.0283    3.6433    2.4544 H       0  UNK0        0.0298
     12  H          1.4578    2.6390    2.4818 H       0  UNK0        0.0298
     13  C         -0.1154    1.9562    3.7760 C.3     0  UNK0       -0.0619
     14  H          0.2443    0.9488    3.8106 H       0  UNK0        0.0231
     15  H          0.2457    2.4932    4.6280 H       0  UNK0        0.0231
     16  H         -1.1860    1.9535    3.7829 H       0  UNK0        0.0231
     17  O          0.3480    0.5170    1.3090 O.3     0  UNK0       -0.4616
     18  C          1.7780    0.5200    1.2993 C.2     0  UNK0        0.3042
     19  O          2.4113    1.1012    2.2182 O.2     0  UNK0       -0.2512
     20  C          2.5421   -0.1873    0.1646 C.3     0  UNK0        0.0332
     21  H          2.7240   -1.2062    0.4385 H       0  UNK0        0.0342
     22  H          1.9573   -0.1586   -0.7307 H       0  UNK0        0.0342
     23  H          3.4744    0.3099   -0.0013 H       0  UNK0        0.0342
@<TRIPOS>BOND
     1     3     1    1
     2     1     4    1
     3     1     2    1
     4     1     5    1
     5     9     8    1
     6    19    18    2
     7     6     5    1
     8     8     5    1
     9     8    17    1
    10     8    10    1
    11     5     7    1
    12    18    17    1
    13    18    20    1
    14    23    20    1
    15    20    22    1
    16    20    21    1
    17    12    10    1
    18    10    11    1
    19    10    13    1
    20    14    13    1
    21    13    16    1
    22    13    15    1
@<TRIPOS>MOLECULE
/home/jramos/PycharmProjects/GeCos/examples/07-EVA_trueno_openbabel_mp2/EVA_C5.pdb
 23 22 0 0 0
SMALL
GASTEIGER

@<TRIPOS>ATOM
      1  C         -2.1759    1.1804    2.5586 C.3     0  UNK0       -0.0619
      2  H         -1.8146    1.7173    3.4103 H       0  UNK0        0.0231
      3  H         -1.8169    0.1732    2.5940 H       0  UNK0        0.0231
      4  H         -3.2459    1.1783    2.5654 H       0  UNK0        0.0231
      5  C         -1.6720    1.8600    1.2720 C.3     0  UNK0       -0.0185
      6  H         -2.0333    1.3239    0.4198 H       0  UNK0        0.0298
      7  H         -2.0309    2.8686    1.2370 H       0  UNK0        0.0298
      8  C         -0.1320    1.8630    1.2620 C.3     0  UNK0        0.1026
      9  H          0.2180    2.3360    0.3690 H       0  UNK0        0.0733
     10  C          0.3880    2.6360    2.4890 C.3     0  UNK0       -0.0185
     11  H          1.4582    2.6386    2.4814 H       0  UNK0        0.0298
     12  H          0.0390    2.1631    3.3829 H       0  UNK0        0.0298
     13  C         -0.1282    4.0862    2.4396 C.3     0  UNK0       -0.0619
     14  H         -1.1984    4.0836    2.4471 H       0  UNK0        0.0231
     15  H          0.2331    4.6229    3.2916 H       0  UNK0        0.0231
     16  H          0.2214    4.5591    1.5449 H       0  UNK0        0.0231
     17  O          0.3480    0.5170    1.3090 O.3     0  UNK0       -0.4616
     18  C         -0.1346   -0.2015    0.1707 C.2     0  UNK0        0.3042
     19  O         -1.3729   -0.3263   -0.0149 O.2     0  UNK0       -0.2512
     20  C          0.8607   -0.8225   -0.8270 C.3     0  UNK0        0.0332
     21  H          1.0859   -0.1114   -1.5950 H       0  UNK0        0.0342
     22  H          1.7606   -1.0888   -0.3136 H       0  UNK0        0.0342
     23  H          0.4273   -1.6965   -1.2655 H       0  UNK0        0.0342
@<TRIPOS>BOND
     1     3     1    1
     2     1     4    1
     3     1     2    1
     4     1     5    1
     5     9     8    1
     6    19    18    2
     7     6     5    1
     8     8     5    1
     9     8    17    1
    10     8    10    1
    11     5     7    1
    12    18    17    1
    13    18    20    1
    14    23    20    1
    15    20    22    1
    16    20    21    1
    17    12    10    1
    18    10    11    1
    19    10    13    1
    20    14    13    1
    21    13    16    1
    22    13    15    1
@<TRIPOS>MOLECULE
/home/jramos/PycharmProjects/GeCos/examples/07-EVA_trueno_openbabel_mp2/EVA_C5.pdb
 23 22 0 0 0
SMALL
GASTEIGER

@<TRIPOS>ATOM
      1  C         -2.1887    3.3096    1.2214 C.3     0  UNK0       -0.0619
      2  H         -1.8386    3.7818    0.3277 H       0  UNK0        0.0231
      3  H         -1.8275    3.8470    2.0730 H       0  UNK0        0.0231
      4  H         -3.2587    3.3075    1.2284 H       0  UNK0        0.0231
      5  C         -1.6720    1.8600    1.2720 C.3     0  UNK0       -0.0185
      6  H         -2.0221    1.3870    2.1652 H       0  UNK0        0.0298
      7  H         -2.0332    1.3223    0.4190 H       0  UNK0        0.0298
      8  C         -0.1320    1.8630    1.2620 C.3     0  UNK0        0.1026
      9  H          0.2180    2.3360    0.3690 H       0  UNK0        0.0733
     10  C          0.3880    2.6360    2.4890 C.3     0  UNK0       -0.0185
     11  H          0.0283    3.6433    2.4544 H       0  UNK0        0.0298
     12  H          1.4578    2.6390    2.4818 H       0  UNK0        0.0298
     13  C         -0.1154    1.9562    3.7760 C.3     0  UNK0       -0.0619
     14  H          0.2443    0.9488    3.8106 H       0  UNK0        0.0231
     15  H          0.2457    2.4932    4.6280 H       0  UNK0        0.0231
     16  H         -1.1860    1.9535    3.7829 H       0  UNK0        0.0231
     17  O          0.3480    0.5170    1.3090 O.3     0  UNK0       -0.4616
     18  C          1.7780    0.5200    1.2993 C.2     0  UNK0        0.3042
     19  O          2.4113    1.1012    2.2182 O.2     0  UNK0       -0.2512
     20  C          2.5421   -0.1873    0.1646 C.3     0  UNK0        0.0332
     21  H          2.7240   -1.2062    0.4385 H       0  UNK0        0.0342
     22  H          1.9573   -0.1586   -0.7307 H       0  UNK0        0.0342
     23  H          3.4744    0.3099   -0.0013 H       0  UNK0        0.0342
@<TRIPOS>BOND
     1     3     1    1
     2     1     4    1
     3     1     2    1
     4     1     5    1
     5     9     8    1
     6    19    18    2
     7     6     5    1
     8     8     5    1
     9     8    17    1
    10     8    10    1
    11     5     7    1
    12    18    17    1
    13    18    20    1
    14    23    20    1
    15    20    22    1
    16    20    21    1
    17    12    10    1
    18    10    11    1
    19    10    13    1
    20    14    13    1
    21    13    16    1
    22    13    15    1
@<TRIPOS>MOLECULE
/home/jramos/PycharmProjects/GeCos/examples/07-EVA_trueno_openbabel_mp2/EVA_C5.pdb
 23 22 0 0 0
SMALL
GASTEIGER

@<TRIPOS>ATOM
      1  C         -2.1920    1.0869    0.0460 C.3     0  UNK0       -0.0619
      2  H         -1.8330    0.0799    0.0811 H       0  UNK0        0.0231
      3  H         -1.8420    1.5589   -0.8480 H       0  UNK0        0.0231
      4  H         -3.2620    1.0849    0.0530 H       0  UNK0        0.0231
      5  C         -1.6720    1.8600    1.2720 C.3     0  UNK0       -0.0185
      6  H         -2.0310    2.8670    1.2379 H       0  UNK0        0.0298
      7  H         -2.0220    1.3870    2.1670 H       0  UNK0        0.0298
      8  C         -0.1320    1.8630    1.2620 C.3     0  UNK0        0.1026
      9  H          0.2180    2.3360    0.3690 H       0  UNK0        0.0733
     10  C          0.3880    2.6360    2.4890 C.3     0  UNK0       -0.0185
     11  H          1.4582    2.6386    2.4814 H       0  UNK0        0.0298
     12  H          0.0390    2.1631    3.3829 H       0  UNK0        0.0298
     13  C         -0.1282    4.0862    2.4396 C.3     0  UNK0       -0.0619
     14  H         -1.1984    4.0836    2.4471 H       0  UNK0        0.0231
     15  H          0.2331    4.6229    3.2916 H       0  UNK0        0.0231
     16  H          0.2214    4.5591    1.5449 H       0  UNK0        0.0231
     17  O          0.3480    0.5170    1.3090 O.3     0  UNK0       -0.4616
     18  C          1.7780    0.5200    1.2993 C.2     0  UNK0        0.3042
     19  O          2.4077    1.4850    1.8045 O.2     0  UNK0       -0.2512
     20  C          2.5465   -0.6571    0.6703 C.3     0  UNK0        0.0332
     21  H          2.7311   -1.4018    1.4170 H       0  UNK0        0.0342
     22  H          1.9633   -1.0820   -0.1194 H       0  UNK0        0.0342
     23  H          3.4776   -0.3060    0.2782 H       0  UNK0        0.0342
@<TRIPOS>BOND
     1     3     1    1
     2     1     4    1
     3     1     2    1
     4     1     5    1
     5     9     8    1
     6    19    18    2
     7     6     5    1
     8     8     5    1
     9     8    17    1
    10     8    10    1
    11     5     7    1
    12    18    17    1
    13    18    20    1
    14    23    20    1
    15    20    22    1
    16    20    21    1
    17    12    10    1
    18    10    11    1
    19    10    13    1
    20    14    13    1
    21    13    16    1
    22    13    15    1
@<TRIPOS>MOLECULE
/home/jramos/PycharmProjects/GeCos/examples/07-EVA_trueno_openbabel_mp2/EVA_C5.pdb
 23 22 0 0 0
SMALL
GASTEIGER

@<TRIPOS>ATOM
      1  C         -2.1759    1.1804    2.5586 C.3     0  UNK0       -0.0619
      2  H         -1.8146    1.7173    3.4103 H       0  UNK0        0.0231
      3  H         -1.8169    0.1732    2.5940 H       0  UNK0        0.0231
      4  H         -3.2459    1.1783    2.5654 H       0  UNK0        0.0231
      5  C         -1.6720    1.8600    1.2720 C.3     0  UNK0       -0.0185
      6  H         -2.0333    1.3239    0.4198 H       0  UNK0        0.0298
      7  H         -2.0309    2.8686    1.2370 H       0  UNK0        0.0298
      8  C         -0.1320    1.8630    1.2620 C.3     0  UNK0        0.1026
      9  H          0.2180    2.3360    0.3690 H       0  UNK0        0.0733
     10  C          0.3880    2.6360    2.4890 C.3     0  UNK0       -0.0185
     11  H          0.0385    2.1626    3.3829 H       0  UNK0        0.0298
     12  H          0.0286    3.6431    2.4550 H       0  UNK0        0.0298
     13  C          1.9281    2.6394    2.4796 C.3     0  UNK0       -0.0619
     14  H          2.2776    3.1127    1.5857 H       0  UNK0        0.0231
     15  H          2.2890    3.1761    3.3318 H       0  UNK0        0.0231
     16  H          2.2874    1.6314    2.5138 H       0  UNK0        0.0231
     17  O          0.3480    0.5170    1.3090 O.3     0  UNK0       -0.4616
     18  C         -0.1346   -0.2015    0.1707 C.2     0  UNK0        0.3042
     19  O         -1.2384    0.1096   -0.3470 O.2     0  UNK0       -0.2512
     20  C          0.6959   -1.3557   -0.4207 C.3     0  UNK0        0.0332
     21  H          1.3590   -0.9710   -1.1681 H       0  UNK0        0.0342
     22  H          1.2665   -1.8188    0.3567 H       0  UNK0        0.0342
     23  H          0.0407   -2.0770   -0.8615 H       0  UNK0        0.0342
@<TRIPOS>BOND
     1     3     1    1
     2     1     4    1
     3     1     2    1
     4     1     5    1
     5     9     8    1
     6    19    18    2
     7     6     5    1
     8     8     5    1
     9     8    17    1
    10     8    10    1
    11     5     7    1
    12    18    17    1
    13    18    20    1
    14    23    20    1
    15    20    22    1
    16    20    21    1
    17    12    10    1
    18    10    11    1
    19    10    13    1
    20    14    13    1
    21    13    16    1
    22    13    15    1
@<TRIPOS>MOLECULE
/home/jramos/PycharmProjects/GeCos/examples/07-EVA_trueno_openbabel_mp2/EVA_C5.pdb
 23 22 0 0 0
SMALL
GASTEIGER

@<TRIPOS>ATOM
      1  C         -2.1887    3.3096    1.2214 C.3     0  UNK0       -0.0619
      2  H         -1.8386    3.7818    0.3277 H       0  UNK0        0.0231
      3  H         -1.8275    3.8470    2.0730 H       0  UNK0        0.0231
      4  H         -3.2587    3.3075    1.2284 H       0  UNK0        0.0231
      5  C         -1.6720    1.8600    1.2720 C.3     0  UNK0       -0.0185
      6  H         -2.0221    1.3870    2.1652 H       0  UNK0        0.0298
      7  H         -2.0332    1.3223    0.4190 H       0  UNK0        0.0298
      8  C         -0.1320    1.8630    1.2620 C.3     0  UNK0        0.1026
      9  H          0.2180    2.3360    0.3690 H       0  UNK0        0.0733
     10  C          0.3880    2.6360    2.4890 C.3     0  UNK0       -0.0185
     11  H          0.0283    3.6433    2.4544 H       0  UNK0        0.0298
     12  H          1.4578    2.6390    2.4818 H       0  UNK0        0.0298
     13  C         -0.1154    1.9562    3.7760 C.3     0  UNK0       -0.0619
     14  H          0.2443    0.9488    3.8106 H       0  UNK0        0.0231
     15  H          0.2457    2.4932    4.6280 H       0  UNK0        0.0231
     16  H         -1.1860    1.9535    3.7829 H       0  UNK0        0.0231
     17  O          0.3480    0.5170    1.3090 O.3     0  UNK0       -0.4616
     18  C         -0.1346   -0.2015    0.1707 C.2     0  UNK0        0.3042
     19  O         -1.2384    0.1096   -0.3470 O.2     0  UNK0       -0.2512
     20  C          0.6959   -1.3557   -0.4207 C.3     0  UNK0        0.0332
     21  H          1.3590   -0.9710   -1.1681 H       0  UNK0        0.0342
     22  H          1.2665   -1.8188    0.3567 H       0  UNK0        0.0342
     23  H          0.0407   -2.0770   -0.8615 H       0  UNK0        0.0342
@<TRIPOS>BOND
     1     3     1    1
     2     1     4    1
     3     1     2    1
     4     1     5    1
     5     9     8    1
     6    19    18    2
     7     6     5    1
     8     8     5    1
     9     8    17    1
    10     8    10    1
    11     5     7    1
    12    18    17    1
    13    18    20    1
    14    23    20    1
    15    20    22    1
    16    20    21    1
    17    12    10    1
    18    10    11    1
    19    10    13    1
    20    14    13    1
    21    13    16    1
    22    13    15    1
@<TRIPOS>MOLECULE
/home/jramos/PycharmProjects/GeCos/examples/07-EVA_trueno_openbabel_mp2/EVA_C5.pdb
 23 22 0 0 0
SMALL
GASTEIGER

@<TRIPOS>ATOM
      1  C         -2.1759    1.1804    2.5586 C.3     0  UNK0       -0.0619
      2  H         -1.8146    1.7173    3.4103 H       0  UNK0        0.0231
      3  H         -1.8169    0.1732    2.5940 H       0  UNK0        0.0231
      4  H         -3.2459    1.1783    2.5654 H       0  UNK0        0.0231
      5  C         -1.6720    1.8600    1.2720 C.3     0  UNK0       -0.0185
      6  H         -2.0333    1.3239    0.4198 H       0  UNK0        0.0298
      7  H         -2.0309    2.8686    1.2370 H       0  UNK0        0.0298
      8  C         -0.1320    1.8630    1.2620 C.3     0  UNK0        0.1026
      9  H          0.2180    2.3360    0.3690 H       0  UNK0        0.0733
     10  C          0.3880    2.6360    2.4890 C.3     0  UNK0       -0.0185
     11  H          1.4582    2.6386    2.4814 H       0  UNK0        0.0298
     12  H          0.0390    2.1631    3.3829 H       0  UNK0        0.0298
     13  C         -0.1282    4.0862    2.4396 C.3     0  UNK0       -0.0619
     14  H         -1.1984    4.0836    2.4471 H       0  UNK0        0.0231
     15  H          0.2331    4.6229    3.2916 H       0  UNK0        0.0231
     16  H          0.2214    4.5591    1.5449 H       0  UNK0        0.0231
     17  O          0.3480    0.5170    1.3090 O.3     0  UNK0       -0.4616
     18  C          1.7045    0.5099    1.7616 C.2     0  UNK0        0.3042
     19  O          1.9911    0.9750    2.8951 O.2     0  UNK0       -0.2512
     20  C          2.8138   -0.0661    0.8619 C.3     0  UNK0        0.0332
     21  H          2.9288   -1.1113    1.0629 H       0  UNK0        0.0342
     22  H          2.5470    0.0714   -0.1649 H       0  UNK0        0.0342
     23  H          3.7344    0.4398    1.0629 H       0  UNK0        0.0342
@<TRIPOS>BOND
     1     3     1    1
     2     1     4    1
     3     1     2    1
     4     1     5    1
     5     9     8    1
     6    19    18    2
     7     6     5    1
     8     8     5    1
     9     8    17    1
    10     8    10    1
    11     5     7    1
    12    18    17    1
    13    18    20    1
    14    23    20    1
    15    20    22    1
    16    20    21    1
    17    12    10    1
    18    10    11    1
    19    10    13    1
    20    14    13    1
    21    13    16    1
    22    13    15    1
@<TRIPOS>MOLECULE
/home/jramos/PycharmProjects/GeCos/examples/07-EVA_trueno_openbabel_mp2/EVA_C5.pdb
 23 22 0 0 0
SMALL
GASTEIGER

@<TRIPOS>ATOM
      1  C         -2.1920    1.0869    0.0460 C.3     0  UNK0       -0.0619
      2  H         -1.8330    0.0799    0.0811 H       0  UNK0        0.0231
      3  H         -1.8420    1.5589   -0.8480 H       0  UNK0        0.0231
      4  H         -3.2620    1.0849    0.0530 H       0  UNK0        0.0231
      5  C         -1.6720    1.8600    1.2720 C.3     0  UNK0       -0.0185
      6  H         -2.0310    2.8670    1.2379 H       0  UNK0        0.0298
      7  H         -2.0220    1.3870    2.1670 H       0  UNK0        0.0298
      8  C         -0.1320    1.8630    1.2620 C.3     0  UNK0        0.1026
      9  H          0.2180    2.3360    0.3690 H       0  UNK0        0.0733
     10  C          0.3880    2.6360    2.4890 C.3     0  UNK0       -0.0185
     11  H          1.4582    2.6386    2.4814 H       0  UNK0        0.0298
     12  H          0.0390    2.1631    3.3829 H       0  UNK0        0.0298
     13  C         -0.1282    4.0862    2.4396 C.3     0  UNK0       -0.0619
     14  H         -1.1984    4.0836    2.4471 H       0  UNK0        0.0231
     15  H          0.2331    4.6229    3.2916 H       0  UNK0        0.0231
     16  H          0.2214    4.5591    1.5449 H       0  UNK0        0.0231
     17  O          0.3480    0.5170    1.3090 O.3     0  UNK0       -0.4616
     18  C          1.1509    0.3375    2.4787 C.2     0  UNK0        0.3042
     19  O          0.6508    0.5222    3.6184 O.2     0  UNK0       -0.2512
     20  C          2.6267   -0.0811    2.3432 C.3     0  UNK0        0.0332
     21  H          2.6961   -1.1494    2.3492 H       0  UNK0        0.0342
     22  H          3.0210    0.2959    1.4229 H       0  UNK0        0.0342
     23  H          3.1870    0.3179    3.1622 H       0  UNK0        0.0342
@<TRIPOS>BOND
     1     3     1    1
     2     1     4    1
     3     1     2    1
     4     1     5    1
     5     9     8    1
     6    19    18    2
     7     6     5    1
     8     8     5    1
     9     8    17    1
    10     8    10    1
    11     5     7    1
    12    18    17    1
    13    18    20    1
    14    23    20    1
    15    20    22    1
    16    20    21    1
    17    12    10    1
    18    10    11    1
    19    10    13    1
    20    14    13    1
    21    13    16    1
    22    13    15    1
@<TRIPOS>MOLECULE
/home/jramos/PycharmProjects/GeCos/examples/07-EVA_trueno_openbabel_mp2/EVA_C5.pdb
 23 22 0 0 0
SMALL
GASTEIGER

@<TRIPOS>ATOM
      1  C         -2.1759    1.1804    2.5586 C.3     0  UNK0       -0.0619
      2  H         -1.8146    1.7173    3.4103 H       0  UNK0        0.0231
      3  H         -1.8169    0.1732    2.5940 H       0  UNK0        0.0231
      4  H         -3.2459    1.1783    2.5654 H       0  UNK0        0.0231
      5  C         -1.6720    1.8600    1.2720 C.3     0  UNK0       -0.0185
      6  H         -2.0333    1.3239    0.4198 H       0  UNK0        0.0298
      7  H         -2.0309    2.8686    1.2370 H       0  UNK0        0.0298
      8  C         -0.1320    1.8630    1.2620 C.3     0  UNK0        0.1026
      9  H          0.2180    2.3360    0.3690 H       0  UNK0        0.0733
     10  C          0.3880    2.6360    2.4890 C.3     0  UNK0       -0.0185
     11  H          1.4582    2.6386    2.4814 H       0  UNK0        0.0298
     12  H          0.0390    2.1631    3.3829 H       0  UNK0        0.0298
     13  C         -0.1282    4.0862    2.4396 C.3     0  UNK0       -0.0619
     14  H         -1.1984    4.0836    2.4471 H       0  UNK0        0.0231
     15  H          0.2331    4.6229    3.2916 H       0  UNK0        0.0231
     16  H          0.2214    4.5591    1.5449 H       0  UNK0        0.0231
     17  O          0.3480    0.5170    1.3090 O.3     0  UNK0       -0.4616
     18  C          1.1509    0.3375    2.4787 C.2     0  UNK0        0.3042
     19  O          2.1848    1.0353    2.6442 O.2     0  UNK0       -0.2512
     20  C          0.7504   -0.7095    3.5346 C.3     0  UNK0        0.0332
     21  H          0.1095   -0.2551    4.2619 H       0  UNK0        0.0342
     22  H          0.2330   -1.5158    3.0586 H       0  UNK0        0.0342
     23  H          1.6288   -1.0836    4.0167 H       0  UNK0        0.0342
@<TRIPOS>BOND
     1     3     1    1
     2     1     4    1
     3     1     2    1
     4     1     5    1
     5     9     8    1
     6    19    18    2
     7     6     5    1
     8     8     5    1
     9     8    17    1
    10     8    10    1
    11     5     7    1
    12    18    17    1
    13    18    20    1
    14    23    20    1
    15    20    22    1
    16    20    21    1
    17    12    10    1
    18    10    11    1
    19    10    13    1
    20    14    13    1
    21    13    16    1
    22    13    15    1
@<TRIPOS>MOLECULE
/home/jramos/PycharmProjects/GeCos/examples/07-EVA_trueno_openbabel_mp2/EVA_C5.pdb
 23 22 0 0 0
SMALL
GASTEIGER

@<TRIPOS>ATOM
      1  C         -2.1759    1.1804    2.5586 C.3     0  UNK0       -0.0619
      2  H         -1.8146    1.7173    3.4103 H       0  UNK0        0.0231
      3  H         -1.8169    0.1732    2.5940 H       0  UNK0        0.0231
      4  H         -3.2459    1.1783    2.5654 H       0  UNK0        0.0231
      5  C         -1.6720    1.8600    1.2720 C.3     0  UNK0       -0.0185
      6  H         -2.0333    1.3239    0.4198 H       0  UNK0        0.0298
      7  H         -2.0309    2.8686    1.2370 H       0  UNK0        0.0298
      8  C         -0.1320    1.8630    1.2620 C.3     0  UNK0        0.1026
      9  H          0.2180    2.3360    0.3690 H       0  UNK0        0.0733
     10  C          0.3880    2.6360    2.4890 C.3     0  UNK0       -0.0185
     11  H          1.4582    2.6386    2.4814 H       0  UNK0        0.0298
     12  H          0.0390    2.1631    3.3829 H       0  UNK0        0.0298
     13  C         -0.1282    4.0862    2.4396 C.3     0  UNK0       -0.0619
     14  H         -1.1984    4.0836    2.4471 H       0  UNK0        0.0231
     15  H          0.2331    4.6229    3.2916 H       0  UNK0        0.0231
     16  H          0.2214    4.5591    1.5449 H       0  UNK0        0.0231
     17  O          0.3480    0.5170    1.3090 O.3     0  UNK0       -0.4616
     18  C         -0.4705   -0.3105    0.4782 C.2     0  UNK0        0.3042
     19  O         -1.7013   -0.4179    0.7162 O.2     0  UNK0       -0.2512
     20  C          0.1545   -1.0702   -0.7068 C.3     0  UNK0        0.0332
     21  H          0.1144   -0.4574   -1.5838 H       0  UNK0        0.0342
     22  H          1.1740   -1.3038   -0.4823 H       0  UNK0        0.0342
     23  H         -0.3903   -1.9745   -0.8776 H       0  UNK0        0.0342
@<TRIPOS>BOND
     1     3     1    1
     2     1     4    1
     3     1     2    1
     4     1     5    1
     5     9     8    1
     6    19    18    2
     7     6     5    1
     8     8     5    1
     9     8    17    1
    10     8    10    1
    11     5     7    1
    12    18    17    1
    13    18    20    1
    14    23    20    1
    15    20    22    1
    16    20    21    1
    17    12    10    1
    18    10    11    1
    19    10    13    1
    20    14    13    1
    21    13    16    1
    22    13    15    1
