@<TRIPOS>MOLECULE
/home/jramos/PycharmProjects/GeCos/examples/03-IsoP_localhost_rdkit_pm3/03-IsoP_g16_conformers/03-IsoP_356_gaussian.xyz
 28 27 0 0 0
SMALL
GASTEIGER

@<TRIPOS>ATOM
      1 C          -0.8272    0.4842   -0.1759 C.3     1  UNL11      -0.0286
      2 H          -0.9822    0.4263   -1.2778 H       1  UNL11       0.0313
      3 H          -0.4821    1.5160    0.0313 H       1  UNL11       0.0313
      4 C          -2.1229    0.2367    0.5286 C.2     1  UNL11      -0.0765
      5 C          -2.2147    0.7473    1.9227 C.3     1  UNL11      -0.0438
      6 H          -3.1693    0.4960    2.4037 H       1  UNL11       0.0274
      7 H          -1.4103    0.3307    2.5455 H       1  UNL11       0.0274
      8 H          -2.1124    1.8411    1.9399 H       1  UNL11       0.0274
      9 C          -3.1575   -0.3901   -0.0486 C.2     1  UNL11      -0.0881
     10 H          -4.0867   -0.5438    0.5152 H       1  UNL11       0.0569
     11 C          -3.1561   -0.9099   -1.4329 C.3     1  UNL11      -0.0466
     12 H          -2.2837   -0.5574   -2.0087 H       1  UNL11       0.0272
     13 H          -4.0606   -0.5955   -1.9693 H       1  UNL11       0.0272
     14 H          -3.1333   -2.0079   -1.4318 H       1  UNL11       0.0272
     15 C           2.9212   -0.3581    1.5920 C.3     1  UNL11      -0.0440
     16 H           3.4874   -1.2732    1.8115 H       1  UNL11       0.0274
     17 H           3.4883    0.4905    1.9968 H       1  UNL11       0.0274
     18 H           1.9655   -0.4157    2.1386 H       1  UNL11       0.0274
     19 C           2.7160   -0.2083    0.1279 C.2     1  UNL11      -0.0796
     20 C           3.9539    0.0240   -0.6644 C.3     1  UNL11      -0.0440
     21 H           3.7589    0.1063   -1.7418 H       1  UNL11       0.0274
     22 H           4.6668   -0.7989   -0.5182 H       1  UNL11       0.0274
     23 H           4.4493    0.9513   -0.3454 H       1  UNL11       0.0274
     24 C           1.5167   -0.2766   -0.4652 C.2     1  UNL11      -0.0850
     25 H           1.4363   -0.1536   -1.5537 H       1  UNL11       0.0572
     26 C           0.2355   -0.5227    0.2474 C.3     1  UNL11      -0.0308
     27 H          -0.1041   -1.5535    0.0215 H       1  UNL11       0.0310
     28 H           0.3841   -0.4884    1.3511 H       1  UNL11       0.0310
@<TRIPOS>BOND
     1     6     5    1
     2     7     5    1
     3     8     5    1
     4     5     4    1
     5    10     9    1
     6    18    15    1
     7    28    26    1
     8     4     9    2
     9     4     1    1
    10    17    15    1
    11     9    11    1
    12    16    15    1
    13    15    19    1
    14     3     1    1
    15    26     1    1
    16    26    27    1
    17    26    24    1
    18     1     2    1
    19    11    14    1
    20    11    13    1
    21    11    12    1
    22    19    24    2
    23    19    20    1
    24    24    25    1
    25    23    20    1
    26    20    22    1
    27    20    21    1
