@<TRIPOS>MOLECULE
/home/jramos/PycharmProjects/GeCos/examples/03-IsoP_localhost_rdkit_pm3/03-IsoP_g16_conformers/03-IsoP_192_gaussian.xyz
 28 27 0 0 0
SMALL
GASTEIGER

@<TRIPOS>ATOM
      1 C          -1.3271    0.7631    0.4865 C.3     1  UNL1       -0.0286
      2 H          -1.9225    1.6362    0.8198 H       1  UNL1        0.0313
      3 H          -1.4062    0.0080    1.3000 H       1  UNL1        0.0313
      4 C          -1.9342    0.2354   -0.7752 C.2     1  UNL1       -0.0765
      5 C          -1.9890    1.2016   -1.9060 C.3     1  UNL1       -0.0438
      6 H          -2.1860    0.7179   -2.8709 H       1  UNL1        0.0274
      7 H          -1.0291    1.7411   -1.9850 H       1  UNL1        0.0274
      8 H          -2.7772    1.9476   -1.7376 H       1  UNL1        0.0274
      9 C          -2.4106   -1.0101   -0.9040 C.2     1  UNL1       -0.0881
     10 H          -2.8503   -1.3273   -1.8586 H       1  UNL1        0.0569
     11 C          -2.3985   -2.0352    0.1615 C.3     1  UNL1       -0.0466
     12 H          -3.4159   -2.3939    0.3654 H       1  UNL1        0.0272
     13 H          -1.7945   -2.8998   -0.1442 H       1  UNL1        0.0272
     14 H          -1.9807   -1.6537    1.1080 H       1  UNL1        0.0272
     15 C           3.0917   -1.2574    0.7764 C.3     1  UNL1       -0.0440
     16 H           4.0722   -1.0008    0.3527 H       1  UNL1        0.0274
     17 H           2.6532   -2.0426    0.1464 H       1  UNL1        0.0274
     18 H           3.2642   -1.6888    1.7719 H       1  UNL1        0.0274
     19 C           2.2294   -0.0487    0.8706 C.2     1  UNL1       -0.0796
     20 C           2.7882    1.0691    1.6745 C.3     1  UNL1       -0.0440
     21 H           3.1428    0.7135    2.6509 H       1  UNL1        0.0274
     22 H           3.6406    1.5291    1.1570 H       1  UNL1        0.0274
     23 H           2.0398    1.8584    1.8551 H       1  UNL1        0.0274
     24 C           1.0379    0.0023    0.2600 C.2     1  UNL1       -0.0850
     25 H           0.6730   -0.8594   -0.3157 H       1  UNL1        0.0572
     26 C           0.1276    1.1762    0.2922 C.3     1  UNL1       -0.0308
     27 H           0.2269    1.7341   -0.6681 H       1  UNL1        0.0310
     28 H           0.4351    1.8841    1.0939 H       1  UNL1        0.0310
@<TRIPOS>BOND
     1     6     5    1
     2     7     5    1
     3     5     8    1
     4     5     4    1
     5    10     9    1
     6     9     4    2
     7     9    11    1
     8     4     1    1
     9    27    26    1
    10    25    24    1
    11    13    11    1
    12    17    15    1
    13    11    12    1
    14    11    14    1
    15    24    26    1
    16    24    19    2
    17    26     1    1
    18    26    28    1
    19    16    15    1
    20     1     2    1
    21     1     3    1
    22    15    19    1
    23    15    18    1
    24    19    20    1
    25    22    20    1
    26    20    23    1
    27    20    21    1
