@<TRIPOS>MOLECULE
/home/jramos/PycharmProjects/GeCos/examples/03-IsoP_localhost_rdkit_pm3/03-IsoP_g16_conformers/03-IsoP_189_gaussian.xyz
 28 27 0 0 0
SMALL
GASTEIGER

@<TRIPOS>ATOM
      1 C          -1.0953    1.2301    0.1021 C.3     1  UNL11      -0.0286
      2 H          -1.6143    2.1117    0.5286 H       1  UNL11       0.0313
      3 H          -1.2308    1.2998   -1.0010 H       1  UNL11       0.0313
      4 C          -1.7609   -0.0014    0.6298 C.2     1  UNL11      -0.0765
      5 C          -1.7249   -0.1624    2.1093 C.3     1  UNL11      -0.0438
      6 H          -1.9899   -1.1764    2.4339 H       1  UNL11       0.0274
      7 H          -0.7121    0.0619    2.4882 H       1  UNL11       0.0274
      8 H          -2.4222    0.5368    2.5900 H       1  UNL11       0.0274
      9 C          -2.3678   -0.9064   -0.1494 C.2     1  UNL11      -0.0881
     10 H          -2.8457   -1.7828    0.3076 H       1  UNL11       0.0569
     11 C          -2.4578   -0.8320   -1.6233 C.3     1  UNL11      -0.0466
     12 H          -3.5071   -0.8053   -1.9455 H       1  UNL11       0.0272
     13 H          -1.9901   -1.7128   -2.0826 H       1  UNL11       0.0272
     14 H          -1.9584    0.0625   -2.0315 H       1  UNL11       0.0272
     15 C           2.5184   -0.5843    1.4485 C.3     1  UNL11      -0.0440
     16 H           3.5002   -0.1443    1.6685 H       1  UNL11       0.0274
     17 H           2.5628   -1.6492    1.7126 H       1  UNL11       0.0274
     18 H           1.7788   -0.1046    2.1115 H       1  UNL11       0.0274
     19 C           2.1743   -0.4057    0.0138 C.2     1  UNL11      -0.0796
     20 C           2.9782   -1.2198   -0.9373 C.3     1  UNL11      -0.0440
     21 H           2.7202   -1.0238   -1.9865 H       1  UNL11       0.0274
     22 H           2.8255   -2.2921   -0.7535 H       1  UNL11       0.0274
     23 H           4.0499   -1.0123   -0.8146 H       1  UNL11       0.0274
     24 C           1.2155    0.4230   -0.4213 C.2     1  UNL11      -0.0850
     25 H           1.0034    0.4988   -1.4963 H       1  UNL11       0.0572
     26 C           0.3853    1.2855    0.4594 C.3     1  UNL11      -0.0308
     27 H           0.5176    0.9995    1.5335 H       1  UNL11       0.0310
     28 H           0.7554    2.3258    0.3687 H       1  UNL11       0.0310
@<TRIPOS>BOND
     1     8     5    1
     2     6     5    1
     3     7     5    1
     4     5     4    1
     5    18    15    1
     6    27    26    1
     7     4     9    2
     8     4     1    1
     9    10     9    1
    10    17    15    1
    11     2     1    1
    12    15    16    1
    13    15    19    1
    14     9    11    1
    15     1    26    1
    16     1     3    1
    17    26    28    1
    18    26    24    1
    19    19    24    2
    20    19    20    1
    21    24    25    1
    22    11    12    1
    23    11    14    1
    24    11    13    1
    25    22    20    1
    26    20    23    1
    27    20    21    1
