@<TRIPOS>MOLECULE
/home/jramos/PycharmProjects/GeCos/examples/03-IsoP_localhost_rdkit_pm3/03-IsoP_g16_conformers/03-IsoP_295_gaussian.xyz
 28 27 0 0 0
SMALL
GASTEIGER

@<TRIPOS>ATOM
      1 C          -0.7787   -0.6082   -0.6828 C.3     1  UNL1       -0.0286
      2 H          -0.5501   -1.2574   -1.5514 H       1  UNL1        0.0313
      3 H          -0.9121   -1.2919    0.1860 H       1  UNL1        0.0313
      4 C          -2.0486    0.1398   -0.9365 C.2     1  UNL1       -0.0765
      5 C          -2.2060    0.7136   -2.3000 C.3     1  UNL1       -0.0438
      6 H          -1.3721    1.3891   -2.5382 H       1  UNL1        0.0274
      7 H          -2.2109   -0.0840   -3.0557 H       1  UNL1        0.0274
      8 H          -3.1370    1.2844   -2.4142 H       1  UNL1        0.0274
      9 C          -3.0073    0.2824   -0.0108 C.2     1  UNL1       -0.0881
     10 H          -3.9211    0.8407   -0.2523 H       1  UNL1        0.0569
     11 C          -2.9392   -0.2705    1.3590 C.3     1  UNL1       -0.0466
     12 H          -2.0995   -0.9752    1.4822 H       1  UNL1        0.0272
     13 H          -2.8086    0.5355    2.0932 H       1  UNL1        0.0272
     14 H          -3.8644   -0.8047    1.6109 H       1  UNL1        0.0272
     15 C           3.7400   -0.9826    0.9735 C.3     1  UNL1       -0.0440
     16 H           4.6131   -0.3159    0.9849 H       1  UNL1        0.0274
     17 H           3.8826   -1.7018    0.1561 H       1  UNL1        0.0274
     18 H           3.7425   -1.5470    1.9160 H       1  UNL1        0.0274
     19 C           2.4834   -0.1976    0.8359 C.2     1  UNL1       -0.0796
     20 C           2.2499    0.8140    1.8992 C.3     1  UNL1       -0.0440
     21 H           3.0034    1.6111    1.8467 H       1  UNL1        0.0274
     22 H           1.2569    1.2845    1.8096 H       1  UNL1        0.0274
     23 H           2.3159    0.3573    2.8955 H       1  UNL1        0.0274
     24 C           1.6438   -0.4076   -0.1868 C.2     1  UNL1       -0.0850
     25 H           1.8760   -1.1750   -0.9373 H       1  UNL1        0.0572
     26 C           0.3799    0.3428   -0.4082 C.3     1  UNL1       -0.0308
     27 H           0.5249    1.0341   -1.2635 H       1  UNL1        0.0310
     28 H           0.1436    0.9898    0.4668 H       1  UNL1        0.0310
@<TRIPOS>BOND
     1     7     5    1
     2     6     5    1
     3     8     5    1
     4     5     4    1
     5     2     1    1
     6    27    26    1
     7    25    24    1
     8     4     1    1
     9     4     9    2
    10     1    26    1
    11     1     3    1
    12    26    24    1
    13    26    28    1
    14    10     9    1
    15    24    19    2
    16     9    11    1
    17    17    15    1
    18    19    15    1
    19    19    20    1
    20    15    16    1
    21    15    18    1
    22    11    12    1
    23    11    14    1
    24    11    13    1
    25    22    20    1
    26    21    20    1
    27    20    23    1
