@<TRIPOS>MOLECULE
/home/jramos/PycharmProjects/GeCos/examples/03-IsoP_localhost_rdkit_pm3/03-IsoP_g16_conformers/03-IsoP_419_gaussian.xyz
 28 27 0 0 0
SMALL
GASTEIGER

@<TRIPOS>ATOM
      1 C          -1.2270   -0.4397    1.3517 C.3     1  UNL11      -0.0286
      2 H          -1.8212   -0.2075    2.2581 H       1  UNL11       0.0313
      3 H          -1.3972   -1.5200    1.1432 H       1  UNL11       0.0313
      4 C          -1.7510    0.3950    0.2261 C.2     1  UNL11      -0.0765
      5 C          -1.6606    1.8672    0.4268 C.3     1  UNL11      -0.0438
      6 H          -1.8142    2.4336   -0.5002 H       1  UNL11       0.0274
      7 H          -2.4114    2.2038    1.1541 H       1  UNL11       0.0274
      8 H          -0.6657    2.1326    0.8262 H       1  UNL11       0.0274
      9 C          -2.2834   -0.1190   -0.8907 C.2     1  UNL11      -0.0881
     10 H          -2.6584    0.5541   -1.6728 H       1  UNL11       0.0569
     11 C          -2.4186   -1.5629   -1.1788 C.3     1  UNL11      -0.0466
     12 H          -1.8769   -1.8246   -2.0973 H       1  UNL11       0.0272
     13 H          -2.0225   -2.1939   -0.3658 H       1  UNL11       0.0272
     14 H          -3.4733   -1.8305   -1.3258 H       1  UNL11       0.0272
     15 C           3.0445   -1.0753   -0.8895 C.3     1  UNL11      -0.0440
     16 H           4.0928   -1.0570   -0.5615 H       1  UNL11       0.0274
     17 H           2.7412   -2.1273   -0.9728 H       1  UNL11       0.0274
     18 H           3.0053   -0.6385   -1.8969 H       1  UNL11       0.0274
     19 C           2.1875   -0.3028    0.0499 C.2     1  UNL11      -0.0796
     20 C           2.5849    1.1151    0.2497 C.3     1  UNL11      -0.0440
     21 H           1.8179    1.6828    0.8030 H       1  UNL11       0.0274
     22 H           3.5224    1.1777    0.8181 H       1  UNL11       0.0274
     23 H           2.7435    1.6184   -0.7131 H       1  UNL11       0.0274
     24 C           1.1392   -0.8724    0.6598 C.2     1  UNL11      -0.0850
     25 H           0.8929   -1.9237    0.4582 H       1  UNL11       0.0572
     26 C           0.2492   -0.1785    1.6268 C.3     1  UNL11      -0.0308
     27 H           0.4377    0.9249    1.6180 H       1  UNL11       0.0310
     28 H           0.5096   -0.5282    2.6453 H       1  UNL11       0.0310
@<TRIPOS>BOND
     1    10     9    1
     2     6     5    1
     3    12    11    1
     4     9    11    1
     5     9     4    2
     6    23    20    1
     7     5     7    1
     8     5     8    1
     9     5     4    1
    10    14    11    1
    11    18    15    1
    12    11    13    1
    13     4     1    1
    14    20    21    1
    15    20    19    1
    16    20    22    1
    17    15    19    1
    18    15    17    1
    19    15    16    1
    20    19    24    2
    21    27    26    1
    22     1     3    1
    23     1    26    1
    24     1     2    1
    25    24    25    1
    26    24    26    1
    27    26    28    1
