@<TRIPOS>MOLECULE
/home/jramos/PycharmProjects/GeCos/examples/03-IsoP_localhost_rdkit_pm3/03-IsoP_g16_conformers/03-IsoP_393_gaussian.xyz
 28 27 0 0 0
SMALL
GASTEIGER

@<TRIPOS>ATOM
      1 C          -1.0196   -0.9102    0.9632 C.3     1  UNL11      -0.0286
      2 H          -1.4154   -1.4479    1.8475 H       1  UNL11       0.0313
      3 H          -0.9011   -1.6762    0.1649 H       1  UNL11       0.0313
      4 C          -2.0240    0.1200    0.5522 C.2     1  UNL11      -0.0765
      5 C          -2.3512    1.1368    1.5887 C.3     1  UNL11      -0.0438
      6 H          -1.4243    1.4890    2.0740 H       1  UNL11       0.0274
      7 H          -2.8721    2.0110    1.1787 H       1  UNL11       0.0274
      8 H          -2.9901    0.7007    2.3682 H       1  UNL11       0.0274
      9 C          -2.6098    0.1447   -0.6524 C.2     1  UNL11      -0.0881
     10 H          -3.3449    0.9268   -0.8827 H       1  UNL11       0.0569
     11 C          -2.3476   -0.8211   -1.7408 C.3     1  UNL11      -0.0466
     12 H          -1.6309   -1.6049   -1.4447 H       1  UNL11       0.0272
     13 H          -1.9346   -0.3072   -2.6190 H       1  UNL11       0.0272
     14 H          -3.2768   -1.3172   -2.0506 H       1  UNL11       0.0272
     15 C           3.2723   -0.7680    0.9504 C.3     1  UNL11      -0.0440
     16 H           3.8825   -1.5699    0.5141 H       1  UNL11       0.0274
     17 H           2.6779   -1.2050    1.7698 H       1  UNL11       0.0274
     18 H           3.9561   -0.0299    1.3903 H       1  UNL11       0.0274
     19 C           2.4101   -0.1334   -0.0802 C.2     1  UNL11      -0.0796
     20 C           3.1074    0.2742   -1.3295 C.3     1  UNL11      -0.0440
     21 H           3.9262    0.9715   -1.1056 H       1  UNL11       0.0274
     22 H           3.5451   -0.5995   -1.8316 H       1  UNL11       0.0274
     23 H           2.4381    0.7677   -2.0465 H       1  UNL11       0.0274
     24 C           1.0959    0.0729    0.0793 C.2     1  UNL11      -0.0850
     25 H           0.5073    0.5410   -0.7217 H       1  UNL11       0.0572
     26 C           0.3313   -0.2893    1.3007 C.3     1  UNL11      -0.0308
     27 H           0.9235   -0.9835    1.9378 H       1  UNL11       0.0310
     28 H           0.1720    0.6305    1.9106 H       1  UNL11       0.0310
@<TRIPOS>BOND
     1    14    11    1
     2    13    11    1
     3    11    12    1
     4    11     9    1
     5    10     9    1
     6     9     4    2
     7    23    20    1
     8    22    20    1
     9     3     1    1
    10    25    24    1
    11    20    21    1
    12    20    19    1
    13     4     1    1
    14     4     5    1
    15    24    19    2
    16    24    26    1
    17     1     2    1
    18     1    26    1
    19    19    15    1
    20     7     5    1
    21     5     8    1
    22     5     6    1
    23    16    15    1
    24    26    27    1
    25    26    28    1
    26    15    17    1
    27    15    18    1
